sad/pglib_opf_case3120sp_k__sad.m
%%%%%%%%%%%%%%%%%%%%%%%%%%%%%%%%%%%%%%%%%%%%%%%%%%%%%%%%%%%%%%%%%%%%%%%%%%%
%%%%                                                                  %%%%%
%%%%    IEEE PES Power Grid Library - Optimal Power Flow - v18.08     %%%%%
%%%%          (https://github.com/power-grid-lib/pglib-opf)           %%%%%
%%%%             Benchmark Group - Small Angle Difference             %%%%%
%%%%                         31 - July - 2018                         %%%%%
%%%%                                                                  %%%%%
%%%%%%%%%%%%%%%%%%%%%%%%%%%%%%%%%%%%%%%%%%%%%%%%%%%%%%%%%%%%%%%%%%%%%%%%%%%
function mpc = pglib_opf_case3120sp_k__sad
mpc.version = '2';
mpc.baseMVA = 100.0;

%% area data
%	area	refbus
mpc.areas = [
	1	 1;
];

%% bus data
%	bus_i	type	Pd	Qd	Gs	Bs	area	Vm	Va	baseKV	zone	Vmax	Vmin
mpc.bus = [
	1	 1	 0.0	 0.0	 0.0	 0.0	 1	    1.03000	    0.00000	 220.0	 1	    1.11000	    0.95000;
	2	 1	 0.0	 0.0	 0.0	 0.0	 1	    1.03000	    0.00000	 220.0	 1	    1.11000	    0.95000;
	3	 1	 0.0	 0.0	 0.0	 0.0	 1	    1.03000	    0.00000	 220.0	 1	    1.11000	    0.95000;
	4	 1	 0.0	 0.0	 0.0	 0.0	 1	    1.03000	    0.00000	 220.0	 1	    1.11000	    0.95000;
	5	 1	 0.0	 0.0	 0.0	 0.0	 1	    1.03000	    0.00000	 220.0	 1	    1.11000	    0.95000;
	6	 1	 0.0	 0.0	 0.0	 0.0	 1	    1.03000	    0.00000	 220.0	 1	    1.11000	    0.95000;
	7	 1	 0.0	 0.0	 0.0	 0.0	 1	    1.03000	    0.00000	 220.0	 1	    1.11000	    0.95000;
	8	 1	 0.0	 0.0	 0.0	 0.0	 1	    1.03000	    0.00000	 220.0	 1	    1.11000	    0.95000;
	9	 1	 0.0	 0.0	 0.0	 0.0	 1	    1.03000	    0.00000	 220.0	 1	    1.11000	    0.95000;
	10	 1	 0.0	 0.0	 0.0	 0.0	 1	    1.03000	    0.00000	 220.0	 1	    1.11000	    0.95000;
	11	 1	 0.0	 0.0	 0.0	 0.0	 1	    1.00000	    0.00000	 400.0	 1	    1.05000	    0.95000;
	12	 1	 0.0	 0.0	 0.0	 0.0	 1	    1.00000	    0.00000	 400.0	 1	    1.05000	    0.95000;
	13	 1	 0.0	 0.0	 0.0	 0.0	 1	    1.00000	    0.00000	 400.0	 1	    1.05000	    0.95000;
	14	 1	 0.0	 0.0	 0.0	 0.0	 1	    1.03000	    0.00000	 220.0	 1	    1.11000	    0.95000;
	15	 1	 0.0	 0.0	 0.0	 0.0	 1	    1.03000	    0.00000	 220.0	 1	    1.11000	    0.95000;
	16	 1	 0.0	 0.0	 0.0	 0.0	 1	    1.03000	    0.00000	 220.0	 1	    1.11000	    0.95000;
	17	 1	 0.0	 0.0	 0.0	 0.0	 1	    1.03000	    0.00000	 220.0	 1	    1.11000	    0.95000;
	18	 1	 0.0	 0.0	 0.0	 0.0	 1	    1.00000	    0.00000	 400.0	 1	    1.05000	    0.95000;
	19	 1	 0.0	 0.0	 0.0	 0.0	 1	    1.00000	    0.00000	 400.0	 1	    1.05000	    0.95000;
	20	 1	 0.0	 0.0	 0.0	 0.0	 1	    1.00000	    0.00000	 400.0	 1	    1.05000	    0.95000;
	21	 1	 0.0	 0.0	 0.0	 0.0	 1	    1.00000	    0.00000	 400.0	 1	    1.05000	    0.95000;
	22	 2	 10.0	 20.0	 0.0	 0.0	 1	    1.03000	    0.00000	 220.0	 1	    1.11000	    0.95000;
	23	 2	 10.0	 20.0	 0.0	 0.0	 1	    1.03000	    0.00000	 220.0	 1	    1.11000	    0.95000;
	24	 1	 0.0	 0.0	 0.0	 0.0	 1	    1.03000	    0.00000	 220.0	 1	    1.11000	    0.95000;
	25	 1	 0.0	 0.0	 0.0	 0.0	 1	    1.03000	    0.00000	 220.0	 1	    1.11000	    0.95000;
	26	 1	 0.0	 0.0	 0.0	 0.0	 1	    1.03000	    0.00000	 220.0	 1	    1.11000	    0.95000;
	27	 1	 0.0	 0.0	 0.0	 0.0	 1	    1.03000	    0.00000	 220.0	 1	    1.11000	    0.95000;
	28	 1	 0.0	 0.0	 0.0	 0.0	 1	    1.03000	    0.00000	 220.0	 1	    1.11000	    0.95000;
	29	 1	 0.0	 0.0	 0.0	 0.0	 1	    1.03000	    0.00000	 220.0	 1	    1.11000	    0.95000;
	30	 1	 0.0	 0.0	 0.0	 0.0	 1	    1.03000	    0.00000	 220.0	 1	    1.11000	    0.95000;
	31	 1	 0.0	 0.0	 0.0	 0.0	 1	    1.03000	    0.00000	 220.0	 1	    1.11000	    0.95000;
	32	 1	 0.0	 0.0	 0.0	 0.0	 1	    1.00000	    0.00000	 400.0	 1	    1.05000	    0.95000;
	33	 1	 0.0	 0.0	 0.0	 0.0	 1	    1.00000	    0.00000	 400.0	 1	    1.05000	    0.95000;
	34	 1	 0.0	 0.0	 0.0	 0.0	 1	    1.00000	    0.00000	 400.0	 1	    1.05000	    0.95000;
	35	 2	 32.16	 52.07	 0.0	 0.0	 1	    1.03000	    0.00000	 220.0	 1	    1.11000	    0.95000;
	36	 2	 46.36	 92.07	 0.0	 0.0	 1	    1.03000	    0.00000	 220.0	 1	    1.11000	    0.95000;
	37	 3	 60.0	 120.0	 0.0	 0.0	 1	    1.00000	    0.00000	 400.0	 1	    1.05000	    0.95000;
	38	 2	 60.0	 120.0	 0.0	 0.0	 1	    1.00000	    0.00000	 400.0	 1	    1.05000	    0.95000;
	39	 1	 0.0	 0.0	 0.0	 0.0	 1	    1.03000	    0.00000	 220.0	 1	    1.11000	    0.95000;
	40	 1	 0.0	 0.0	 0.0	 0.0	 1	    1.03000	    0.00000	 220.0	 1	    1.11000	    0.95000;
	41	 1	 0.0	 0.0	 0.0	 0.0	 1	    1.00000	    0.00000	 400.0	 1	    1.05000	    0.95000;
	42	 1	 0.0	 0.0	 0.0	 0.0	 1	    1.00000	    0.00000	 400.0	 1	    1.05000	    0.95000;
	43	 1	 0.0	 0.0	 0.0	 0.0	 1	    1.03000	    0.00000	 220.0	 1	    1.11000	    0.95000;
	44	 1	 0.0	 0.0	 0.0	 0.0	 1	    1.00000	    0.00000	 400.0	 1	    1.05000	    0.95000;
	45	 1	 0.0	 0.0	 0.0	 0.0	 1	    1.03000	    0.00000	 220.0	 1	    1.11000	    0.95000;
	46	 1	 0.0	 0.0	 0.0	 0.0	 1	    1.03000	    0.00000	 220.0	 1	    1.11000	    0.95000;
	47	 1	 0.0	 0.0	 0.0	 0.0	 1	    1.03000	    0.00000	 220.0	 2	    1.11000	    0.95000;
	48	 1	 0.0	 0.0	 0.0	 0.0	 1	    1.03000	    0.00000	 220.0	 2	    1.11000	    0.95000;
	49	 1	 0.0	 0.0	 0.0	 0.0	 1	    1.03000	    0.00000	 220.0	 2	    1.11000	    0.95000;
	50	 1	 0.0	 0.0	 0.0	 0.0	 1	    1.03000	    0.00000	 220.0	 2	    1.11000	    0.95000;
	51	 1	 0.0	 0.0	 0.0	 0.0	 1	    1.03000	    0.00000	 220.0	 2	    1.11000	    0.95000;
	52	 1	 3.97	 1.0	 0.0	 0.0	 1	    1.03000	    0.00000	 220.0	 2	    1.11000	    0.95000;
	53	 1	 0.0	 0.0	 0.0	 0.0	 1	    1.03000	    0.00000	 220.0	 2	    1.11000	    0.95000;
	54	 1	 0.0	 0.0	 0.0	 0.0	 1	    1.00000	    0.00000	 400.0	 2	    1.05000	    0.95000;
	55	 2	 13.0	 30.0	 0.0	 0.0	 1	    1.03000	    0.00000	 220.0	 2	    1.11000	    0.95000;
	56	 2	 39.35	 90.07	 0.0	 0.0	 1	    1.03000	    0.00000	 220.0	 2	    1.11000	    0.95000;
	57	 2	 26.0	 60.0	 0.0	 0.0	 1	    1.03000	    0.00000	 220.0	 2	    1.11000	    0.95000;
	58	 2	 26.0	 50.0	 0.0	 0.0	 1	    1.00000	    0.00000	 400.0	 2	    1.05000	    0.95000;
	59	 2	 26.0	 50.0	 0.0	 0.0	 1	    1.00000	    0.00000	 400.0	 2	    1.05000	    0.95000;
	60	 1	 0.0	 0.0	 0.0	 0.0	 1	    1.03000	    0.00000	 220.0	 2	    1.11000	    0.95000;
	61	 1	 0.0	 0.0	 0.0	 0.0	 1	    1.00000	    0.00000	 400.0	 2	    1.05000	    0.95000;
	62	 1	 0.0	 0.0	 0.0	 0.0	 1	    1.00000	    0.00000	 400.0	 2	    1.05000	    0.95000;
	63	 1	 0.0	 0.0	 0.0	 0.0	 1	    1.00000	    0.00000	 400.0	 2	    1.05000	    0.95000;
	64	 1	 0.0	 0.0	 0.0	 0.0	 1	    1.03000	    0.00000	 220.0	 2	    1.11000	    0.95000;
	65	 1	 0.0	 0.0	 0.0	 0.0	 1	    1.03000	    0.00000	 220.0	 2	    1.11000	    0.95000;
	66	 1	 0.0	 0.0	 0.0	 0.0	 1	    1.00000	    0.00000	 400.0	 2	    1.05000	    0.95000;
	67	 1	 0.0	 0.0	 0.0	 0.0	 1	    1.00000	    0.00000	 400.0	 2	    1.05000	    0.95000;
	68	 2	 13.0	 30.0	 0.0	 0.0	 1	    1.03000	    0.00000	 220.0	 2	    1.11000	    0.95000;
	69	 2	 26.0	 60.0	 0.0	 0.0	 1	    1.03000	    0.00000	 220.0	 2	    1.11000	    0.95000;
	70	 2	 0.0	 2.25	 0.0	 0.0	 1	    1.00000	    0.00000	 400.0	 2	    1.05000	    0.95000;
	71	 2	 26.0	 60.0	 0.0	 0.0	 1	    1.00000	    0.00000	 400.0	 2	    1.05000	    0.95000;
	72	 1	 0.0	 0.0	 0.0	 0.0	 1	    1.03000	    0.00000	 220.0	 2	    1.11000	    0.95000;
	73	 1	 0.0	 0.0	 0.0	 0.0	 1	    1.03000	    0.00000	 220.0	 2	    1.11000	    0.95000;
	74	 1	 0.0	 0.0	 0.0	 0.0	 1	    1.03000	    0.00000	 220.0	 2	    1.11000	    0.95000;
	75	 1	 0.0	 0.0	 0.0	 0.0	 1	    1.03000	    0.00000	 220.0	 2	    1.11000	    0.95000;
	76	 1	 0.0	 0.0	 0.0	 0.0	 1	    1.03000	    0.00000	 220.0	 2	    1.11000	    0.95000;
	77	 1	 0.0	 0.0	 0.0	 0.0	 1	    1.03000	    0.00000	 220.0	 2	    1.11000	    0.95000;
	78	 1	 0.0	 0.0	 0.0	 0.0	 1	    1.00000	    0.00000	 400.0	 2	    1.05000	    0.95000;
	79	 1	 0.0	 0.0	 0.0	 0.0	 1	    1.00000	    0.00000	 400.0	 2	    1.05000	    0.95000;
	80	 1	 0.0	 0.0	 0.0	 0.0	 1	    1.03000	    0.00000	 220.0	 2	    1.11000	    0.95000;
	81	 1	 0.0	 0.0	 0.0	 0.0	 1	    1.03000	    0.00000	 220.0	 2	    1.11000	    0.95000;
	82	 1	 0.0	 0.0	 0.0	 0.0	 1	    1.03000	    0.00000	 220.0	 2	    1.11000	    0.95000;
	83	 1	 0.0	 0.0	 0.0	 0.0	 1	    1.03000	    0.00000	 220.0	 3	    1.11000	    0.95000;
	84	 1	 6.41	 2.01	 0.0	 0.0	 1	    1.03000	    0.00000	 220.0	 3	    1.11000	    0.95000;
	85	 1	 13.89	 5.02	 0.0	 0.0	 1	    1.03000	    0.00000	 220.0	 3	    1.11000	    0.95000;
	86	 1	 0.0	 0.0	 0.0	 0.0	 1	    1.03000	    0.00000	 220.0	 3	    1.11000	    0.95000;
	87	 1	 0.0	 0.0	 0.0	 0.0	 1	    1.03000	    0.00000	 220.0	 3	    1.11000	    0.95000;
	88	 1	 0.0	 0.0	 0.0	 0.0	 1	    1.03000	    0.00000	 220.0	 3	    1.11000	    0.95000;
	89	 1	 0.0	 0.0	 0.0	 0.0	 1	    1.03000	    0.00000	 220.0	 3	    1.11000	    0.95000;
	90	 1	 0.0	 0.0	 0.0	 0.0	 1	    1.03000	    0.00000	 220.0	 3	    1.11000	    0.95000;
	91	 1	 0.0	 0.0	 0.0	 0.0	 1	    1.03000	    0.00000	 220.0	 3	    1.11000	    0.95000;
	92	 2	 28.0	 70.0	 0.0	 0.0	 1	    1.03000	    0.00000	 220.0	 3	    1.11000	    0.95000;
	93	 2	 28.0	 68.0	 0.0	 0.0	 1	    1.03000	    0.00000	 220.0	 3	    1.11000	    0.95000;
	94	 1	 2.78	 1.91	 0.0	 0.0	 1	    1.03000	    0.00000	 220.0	 3	    1.11000	    0.95000;
	95	 1	 0.0	 0.0	 0.0	 0.0	 1	    1.03000	    0.00000	 220.0	 3	    1.11000	    0.95000;
	96	 2	 32.0	 142.0	 0.0	 0.0	 1	    1.00000	    0.00000	 400.0	 3	    1.05000	    0.95000;
	97	 1	 0.0	 0.0	 0.0	 0.0	 1	    1.00000	    0.00000	 400.0	 3	    1.05000	    0.95000;
	98	 1	 0.0	 0.0	 0.0	 0.0	 1	    1.03000	    0.00000	 220.0	 3	    1.11000	    0.95000;
	99	 1	 0.0	 0.0	 0.0	 0.0	 1	    1.03000	    0.00000	 220.0	 3	    1.11000	    0.95000;
	100	 1	 0.0	 0.0	 0.0	 0.0	 1	    1.03000	    0.00000	 220.0	 3	    1.11000	    0.95000;
	101	 1	 38.8	 -2.7	 0.0	 0.0	 1	    1.03000	    0.00000	 220.0	 3	    1.11000	    0.95000;
	102	 1	 0.0	 0.0	 0.0	 0.0	 1	    1.03000	    0.00000	 220.0	 3	    1.11000	    0.95000;
	103	 1	 0.0	 0.0	 0.0	 0.0	 1	    1.03000	    0.00000	 220.0	 3	    1.11000	    0.95000;
	104	 1	 0.0	 0.0	 0.0	 0.0	 1	    1.03000	    0.00000	 220.0	 3	    1.11000	    0.95000;
	105	 1	 0.0	 0.0	 0.0	 0.0	 1	    1.03000	    0.00000	 220.0	 3	    1.11000	    0.95000;
	106	 1	 0.0	 0.0	 0.0	 0.0	 1	    1.03000	    0.00000	 220.0	 3	    1.11000	    0.95000;
	107	 1	 0.0	 0.0	 0.0	 0.0	 1	    1.00000	    0.00000	 400.0	 3	    1.05000	    0.95000;
	108	 1	 0.0	 0.0	 0.0	 0.0	 1	    1.00000	    0.00000	 400.0	 3	    1.05000	    0.95000;
	109	 1	 0.0	 0.0	 0.0	 0.0	 1	    1.03000	    0.00000	 220.0	 3	    1.11000	    0.95000;
	110	 1	 0.0	 0.0	 0.0	 0.0	 1	    1.03000	    0.00000	 220.0	 3	    1.11000	    0.95000;
	111	 1	 0.0	 0.0	 0.0	 0.0	 1	    1.03000	    0.00000	 220.0	 3	    1.11000	    0.95000;
	112	 1	 0.0	 0.0	 0.0	 0.0	 1	    1.03000	    0.00000	 220.0	 3	    1.11000	    0.95000;
	113	 2	 38.41	 12.71	 0.0	 0.0	 1	    1.03000	    0.00000	 220.0	 3	    1.11000	    0.95000;
	114	 1	 0.0	 0.0	 0.0	 0.0	 1	    1.03000	    0.00000	 220.0	 3	    1.11000	    0.95000;
	115	 1	 0.0	 0.0	 0.0	 0.0	 1	    1.03000	    0.00000	 220.0	 3	    1.11000	    0.95000;
	116	 1	 0.0	 0.0	 0.0	 0.0	 1	    1.03000	    0.00000	 220.0	 3	    1.11000	    0.95000;
	117	 1	 0.0	 0.0	 0.0	 0.0	 1	    1.03000	    0.00000	 220.0	 3	    1.11000	    0.95000;
	118	 1	 0.0	 0.0	 0.0	 0.0	 1	    1.03000	    0.00000	 220.0	 3	    1.11000	    0.95000;
	119	 2	 10.0	 44.0	 0.0	 0.0	 1	    1.03000	    0.00000	 220.0	 3	    1.11000	    0.95000;
	120	 2	 10.0	 44.0	 0.0	 0.0	 1	    1.03000	    0.00000	 220.0	 3	    1.11000	    0.95000;
	121	 2	 7.0	 18.0	 0.0	 0.0	 1	    1.03000	    0.00000	 220.0	 3	    1.11000	    0.95000;
	122	 2	 8.0	 21.0	 0.0	 0.0	 1	    1.03000	    0.00000	 220.0	 3	    1.11000	    0.95000;
	123	 1	 0.0	 0.0	 0.0	 0.0	 1	    1.03000	    0.00000	 220.0	 3	    1.11000	    0.95000;
	124	 1	 59.4	 11.61	 0.0	 0.0	 1	    1.03000	    0.00000	 220.0	 3	    1.11000	    0.95000;
	125	 1	 0.0	 0.0	 0.0	 0.0	 1	    1.03000	    0.00000	 220.0	 3	    1.11000	    0.95000;
	126	 1	 0.0	 0.0	 0.0	 0.0	 1	    1.03000	    0.00000	 220.0	 3	    1.11000	    0.95000;
	127	 1	 0.0	 0.0	 0.0	 0.0	 1	    1.03000	    0.00000	 220.0	 3	    1.11000	    0.95000;
	128	 1	 0.0	 0.0	 0.0	 0.0	 1	    1.03000	    0.00000	 220.0	 3	    1.11000	    0.95000;
	129	 1	 0.0	 0.0	 0.0	 0.0	 1	    1.03000	    0.00000	 220.0	 3	    1.11000	    0.95000;
	130	 1	 0.0	 0.0	 0.0	 0.0	 1	    1.00000	    0.00000	 400.0	 3	    1.05000	    0.95000;
	131	 1	 0.0	 0.0	 0.0	 0.0	 1	    1.00000	    0.00000	 400.0	 3	    1.05000	    0.95000;
	132	 2	 0.0	 1.78	 0.0	 0.0	 1	    1.03000	    0.00000	 220.0	 3	    1.11000	    0.95000;
	133	 2	 9.0	 20.0	 0.0	 0.0	 1	    1.03000	    0.00000	 220.0	 3	    1.11000	    0.95000;
	134	 2	 6.0	 15.0	 0.0	 0.0	 1	    1.03000	    0.00000	 220.0	 3	    1.11000	    0.95000;
	135	 1	 0.0	 0.0	 0.0	 0.0	 1	    1.03000	    0.00000	 220.0	 3	    1.11000	    0.95000;
	136	 1	 0.0	 0.0	 0.0	 0.0	 1	    1.00000	    0.00000	 400.0	 3	    1.05000	    0.95000;
	137	 1	 0.0	 0.0	 0.0	 0.0	 1	    1.00000	    0.00000	 400.0	 3	    1.05000	    0.95000;
	138	 1	 0.0	 0.0	 0.0	 0.0	 1	    1.00000	    0.00000	 400.0	 3	    1.05000	    0.95000;
	139	 1	 0.0	 0.0	 0.0	 0.0	 1	    1.00000	    0.00000	 400.0	 3	    1.05000	    0.95000;
	140	 1	 0.0	 0.0	 0.0	 0.0	 1	    1.03000	    0.00000	 220.0	 3	    1.11000	    0.95000;
	141	 1	 0.0	 0.0	 0.0	 0.0	 1	    1.03000	    0.00000	 220.0	 3	    1.11000	    0.95000;
	142	 2	 18.2	 37.21	 0.0	 0.0	 1	    1.03000	    0.00000	 220.0	 3	    1.11000	    0.95000;
	143	 2	 41.52	 73.01	 0.0	 0.0	 1	    1.03000	    0.00000	 220.0	 3	    1.11000	    0.95000;
	144	 2	 28.0	 66.0	 0.0	 0.0	 1	    1.00000	    0.00000	 400.0	 3	    1.05000	    0.95000;
	145	 1	 0.0	 0.0	 0.0	 0.0	 1	    1.00000	    0.00000	 400.0	 3	    1.05000	    0.95000;
	146	 1	 0.0	 0.0	 0.0	 0.0	 1	    1.03000	    0.00000	 220.0	 3	    1.11000	    0.95000;
	147	 1	 0.0	 0.0	 0.0	 0.0	 1	    1.03000	    0.00000	 220.0	 3	    1.11000	    0.95000;
	148	 1	 0.0	 0.0	 0.0	 0.0	 1	    1.03000	    0.00000	 220.0	 3	    1.11000	    0.95000;
	149	 1	 0.0	 0.0	 0.0	 0.0	 1	    1.03000	    0.00000	 220.0	 3	    1.11000	    0.95000;
	150	 2	 0.0	 -0.79	 0.0	 0.0	 1	    1.03000	    0.00000	 220.0	 3	    1.11000	    0.95000;
	151	 2	 0.0	 -0.79	 0.0	 0.0	 1	    1.03000	    0.00000	 220.0	 3	    1.11000	    0.95000;
	152	 2	 7.7	 20.0	 0.0	 0.0	 1	    1.03000	    0.00000	 220.0	 4	    1.11000	    0.95000;
	153	 2	 7.8	 20.0	 0.0	 0.0	 1	    1.03000	    0.00000	 220.0	 4	    1.11000	    0.95000;
	154	 1	 0.0	 0.0	 0.0	 0.0	 1	    1.03000	    0.00000	 220.0	 4	    1.11000	    0.95000;
	155	 1	 0.0	 0.0	 0.0	 0.0	 1	    1.03000	    0.00000	 220.0	 4	    1.11000	    0.95000;
	156	 1	 0.0	 0.0	 0.0	 0.0	 1	    1.03000	    0.00000	 220.0	 4	    1.11000	    0.95000;
	157	 1	 0.0	 0.0	 0.0	 0.0	 1	    1.03000	    0.00000	 220.0	 4	    1.11000	    0.95000;
	158	 1	 0.0	 0.0	 0.0	 0.0	 1	    1.03000	    0.00000	 220.0	 4	    1.11000	    0.95000;
	159	 1	 0.0	 0.0	 0.0	 0.0	 1	    1.00000	    0.00000	 400.0	 4	    1.05000	    0.95000;
	160	 1	 0.0	 0.0	 0.0	 0.0	 1	    1.00000	    0.00000	 400.0	 4	    1.05000	    0.95000;
	161	 1	 0.0	 0.0	 0.0	 0.0	 1	    1.03000	    0.00000	 220.0	 4	    1.11000	    0.95000;
	162	 1	 0.0	 0.0	 0.0	 0.0	 1	    1.03000	    0.00000	 220.0	 4	    1.11000	    0.95000;
	163	 1	 0.0	 0.0	 0.0	 0.0	 1	    1.03000	    0.00000	 220.0	 4	    1.11000	    0.95000;
	164	 1	 0.0	 0.0	 0.0	 0.0	 1	    1.03000	    0.00000	 220.0	 4	    1.11000	    0.95000;
	165	 1	 0.0	 0.0	 0.0	 0.0	 1	    1.03000	    0.00000	 220.0	 4	    1.11000	    0.95000;
	166	 1	 0.0	 0.0	 0.0	 0.0	 1	    1.03000	    0.00000	 220.0	 4	    1.11000	    0.95000;
	167	 2	 0.0	 -13.01	 0.0	 0.0	 1	    1.03000	    0.00000	 220.0	 4	    1.11000	    0.95000;
	168	 1	 0.0	 0.0	 0.0	 0.0	 1	    1.03000	    0.00000	 220.0	 4	    1.11000	    0.95000;
	169	 2	 12.0	 30.0	 0.0	 0.0	 1	    1.03000	    0.00000	 220.0	 4	    1.11000	    0.95000;
	170	 2	 19.91	 36.57	 0.0	 0.0	 1	    1.03000	    0.00000	 220.0	 4	    1.11000	    0.95000;
	171	 2	 12.0	 30.0	 0.0	 0.0	 1	    1.00000	    0.00000	 400.0	 4	    1.05000	    0.95000;
	172	 2	 12.0	 30.0	 0.0	 0.0	 1	    1.00000	    0.00000	 400.0	 4	    1.05000	    0.95000;
	173	 1	 0.0	 0.0	 0.0	 0.0	 1	    1.03000	    0.00000	 220.0	 4	    1.11000	    0.95000;
	174	 1	 0.0	 0.0	 0.0	 0.0	 1	    1.03000	    0.00000	 220.0	 4	    1.11000	    0.95000;
	175	 1	 0.0	 0.0	 0.0	 0.0	 1	    1.03000	    0.00000	 220.0	 4	    1.11000	    0.95000;
	176	 1	 0.0	 0.0	 0.0	 0.0	 1	    1.03000	    0.00000	 220.0	 4	    1.11000	    0.95000;
	177	 2	 30.5	 64.2	 0.0	 0.0	 1	    1.03000	    0.00000	 220.0	 4	    1.11000	    0.95000;
	178	 2	 58.9	 96.0	 0.0	 0.0	 1	    1.03000	    0.00000	 220.0	 4	    1.11000	    0.95000;
	179	 1	 0.0	 0.0	 0.0	 0.0	 1	    1.03000	    0.00000	 220.0	 4	    1.11000	    0.95000;
	180	 2	 26.5	 64.2	 0.0	 0.0	 1	    1.00000	    0.00000	 400.0	 4	    1.05000	    0.95000;
	181	 1	 0.0	 0.0	 0.0	 0.0	 1	    1.00000	    0.00000	 400.0	 4	    1.05000	    0.95000;
	182	 1	 0.0	 0.0	 0.0	 0.0	 1	    1.03000	    0.00000	 220.0	 4	    1.11000	    0.95000;
	183	 1	 0.0	 0.0	 0.0	 0.0	 1	    1.03000	    0.00000	 220.0	 4	    1.11000	    0.95000;
	184	 1	 0.0	 0.0	 0.0	 0.0	 1	    1.00000	    0.00000	 400.0	 4	    1.05000	    0.95000;
	185	 1	 0.0	 0.0	 0.0	 0.0	 1	    1.00000	    0.00000	 400.0	 4	    1.05000	    0.95000;
	186	 1	 0.0	 0.0	 0.0	 0.0	 1	    1.00000	    0.00000	 400.0	 4	    1.05000	    0.95000;
	187	 1	 0.0	 0.0	 0.0	 0.0	 1	    1.00000	    0.00000	 400.0	 4	    1.05000	    0.95000;
	188	 2	 12.0	 30.0	 0.0	 0.0	 1	    1.03000	    0.00000	 220.0	 4	    1.11000	    0.95000;
	189	 2	 23.8	 60.0	 0.0	 0.0	 1	    1.03000	    0.00000	 220.0	 4	    1.11000	    0.95000;
	190	 2	 38.0	 64.0	 0.0	 0.0	 1	    1.00000	    0.00000	 400.0	 4	    1.05000	    0.95000;
	191	 1	 0.0	 0.0	 0.0	 0.0	 1	    1.03000	    0.00000	 220.0	 4	    1.11000	    0.95000;
	192	 1	 0.0	 0.0	 0.0	 0.0	 1	    1.03000	    0.00000	 220.0	 4	    1.11000	    0.95000;
	193	 1	 0.0	 0.0	 0.0	 0.0	 1	    1.03000	    0.00000	 220.0	 4	    1.11000	    0.95000;
	194	 1	 0.0	 0.0	 0.0	 0.0	 1	    1.03000	    0.00000	 220.0	 4	    1.11000	    0.95000;
	195	 1	 0.0	 0.0	 0.0	 0.0	 1	    1.03000	    0.00000	 220.0	 4	    1.11000	    0.95000;
	196	 1	 0.0	 0.0	 0.0	 0.0	 1	    1.03000	    0.00000	 220.0	 4	    1.11000	    0.95000;
	197	 1	 0.0	 0.0	 0.0	 0.0	 1	    1.00000	    0.00000	 400.0	 4	    1.05000	    0.95000;
	198	 1	 0.0	 0.0	 0.0	 0.0	 1	    1.03000	    0.00000	 220.0	 4	    1.11000	    0.95000;
	199	 1	 0.0	 0.0	 0.0	 0.0	 1	    1.03000	    0.00000	 220.0	 4	    1.11000	    0.95000;
	200	 1	 0.0	 0.0	 0.0	 0.0	 1	    1.03000	    0.00000	 220.0	 4	    1.11000	    0.95000;
...
];

%% generator data
%	bus	Pg	Qg	Qmax	Qmin	Vg	mBase	status	Pmax	Pmin	Pc1	Pc2	Qc1min	Qc1max	Qc2min	Qc2max	ramp_agc	ramp_10	ramp_30	ramp_q	apf
mpc.gen = [
	22	 165.5	 50.5	 162.0	 -61.0	 1.06818	 235.0	 1	 221.0	 110.0	 0.0	 0.0	 0.0	 0.0	 0.0	 0.0	 0.0	 0.0	 0.0	 0.0	 0.0;
	23	 170.0	 57.5	 140.0	 -25.0	 1.06818	 235.0	 1	 200.0	 140.0	 0.0	 0.0	 0.0	 0.0	 0.0	 0.0	 0.0	 0.0	 0.0	 0.0	 0.0;
	35	 305.0	 85.5	 190.0	 -19.0	 1.09545	 426.0	 0	 370.0	 240.0	 0.0	 0.0	 0.0	 0.0	 0.0	 0.0	 0.0	 0.0	 0.0	 0.0	 0.0;
	35	 305.0	 85.5	 190.0	 -19.0	 1.09545	 426.0	 0	 370.0	 240.0	 0.0	 0.0	 0.0	 0.0	 0.0	 0.0	 0.0	 0.0	 0.0	 0.0	 0.0;
	35	 305.0	 85.5	 190.0	 -19.0	 1.09545	 426.0	 1	 370.0	 240.0	 0.0	 0.0	 0.0	 0.0	 0.0	 0.0	 0.0	 0.0	 0.0	 0.0	 0.0;
	36	 305.0	 85.5	 190.0	 -19.0	 1.09545	 426.0	 1	 370.0	 240.0	 0.0	 0.0	 0.0	 0.0	 0.0	 0.0	 0.0	 0.0	 0.0	 0.0	 0.0;
	36	 305.0	 85.5	 190.0	 -19.0	 1.09545	 426.0	 1	 370.0	 240.0	 0.0	 0.0	 0.0	 0.0	 0.0	 0.0	 0.0	 0.0	 0.0	 0.0	 0.0;
	37	 305.0	 85.5	 190.0	 -19.0	 1.04	 426.0	 1	 370.0	 240.0	 0.0	 0.0	 0.0	 0.0	 0.0	 0.0	 0.0	 0.0	 0.0	 0.0	 0.0;
	37	 305.0	 85.5	 190.0	 -19.0	 1.04	 426.0	 1	 370.0	 240.0	 0.0	 0.0	 0.0	 0.0	 0.0	 0.0	 0.0	 0.0	 0.0	 0.0	 0.0;
	37	 305.0	 85.5	 190.0	 -19.0	 1.04	 426.0	 1	 370.0	 240.0	 0.0	 0.0	 0.0	 0.0	 0.0	 0.0	 0.0	 0.0	 0.0	 0.0	 0.0;
	38	 305.0	 85.5	 190.0	 -19.0	 1.04	 426.0	 1	 370.0	 240.0	 0.0	 0.0	 0.0	 0.0	 0.0	 0.0	 0.0	 0.0	 0.0	 0.0	 0.0;
	38	 305.0	 85.5	 190.0	 -19.0	 1.04	 426.0	 1	 370.0	 240.0	 0.0	 0.0	 0.0	 0.0	 0.0	 0.0	 0.0	 0.0	 0.0	 0.0	 0.0;
	38	 305.0	 85.5	 190.0	 -19.0	 1.04	 426.0	 1	 370.0	 240.0	 0.0	 0.0	 0.0	 0.0	 0.0	 0.0	 0.0	 0.0	 0.0	 0.0	 0.0;
	55	 162.5	 59.5	 152.0	 -33.0	 1.09091	 235.0	 1	 215.0	 110.0	 0.0	 0.0	 0.0	 0.0	 0.0	 0.0	 0.0	 0.0	 0.0	 0.0	 0.0;
	55	 172.5	 59.5	 152.0	 -33.0	 1.09091	 235.0	 0	 220.0	 125.0	 0.0	 0.0	 0.0	 0.0	 0.0	 0.0	 0.0	 0.0	 0.0	 0.0	 0.0;
	56	 175.0	 58.0	 149.0	 -33.0	 1.09091	 235.0	 0	 225.0	 125.0	 0.0	 0.0	 0.0	 0.0	 0.0	 0.0	 0.0	 0.0	 0.0	 0.0	 0.0;
	56	 167.5	 58.0	 149.0	 -33.0	 1.09091	 235.0	 1	 225.0	 110.0	 0.0	 0.0	 0.0	 0.0	 0.0	 0.0	 0.0	 0.0	 0.0	 0.0	 0.0;
	57	 167.5	 58.0	 149.0	 -33.0	 1.09091	 235.0	 1	 225.0	 110.0	 0.0	 0.0	 0.0	 0.0	 0.0	 0.0	 0.0	 0.0	 0.0	 0.0	 0.0;
	57	 172.5	 58.0	 149.0	 -33.0	 1.09091	 235.0	 1	 225.0	 120.0	 0.0	 0.0	 0.0	 0.0	 0.0	 0.0	 0.0	 0.0	 0.0	 0.0	 0.0;
	58	 395.0	 158.0	 363.0	 -47.0	 1.035	 588.0	 1	 535.0	 255.0	 0.0	 0.0	 0.0	 0.0	 0.0	 0.0	 0.0	 0.0	 0.0	 0.0	 0.0;
	59	 405.0	 124.0	 348.0	 -100.0	 1.035	 588.0	 1	 560.0	 250.0	 0.0	 0.0	 0.0	 0.0	 0.0	 0.0	 0.0	 0.0	 0.0	 0.0	 0.0;
	68	 177.0	 53.0	 120.0	 -14.0	 1.08636	 235.0	 1	 225.0	 129.0	 0.0	 0.0	 0.0	 0.0	 0.0	 0.0	 0.0	 0.0	 0.0	 0.0	 0.0;
	69	 177.0	 53.0	 120.0	 -14.0	 1.08636	 235.0	 1	 225.0	 129.0	 0.0	 0.0	 0.0	 0.0	 0.0	 0.0	 0.0	 0.0	 0.0	 0.0	 0.0;
	69	 177.0	 44.5	 99.0	 -10.0	 1.08636	 235.0	 1	 225.0	 129.0	 0.0	 0.0	 0.0	 0.0	 0.0	 0.0	 0.0	 0.0	 0.0	 0.0	 0.0;
	70	 177.0	 53.0	 120.0	 -14.0	 1.0325	 235.0	 0	 225.0	 129.0	 0.0	 0.0	 0.0	 0.0	 0.0	 0.0	 0.0	 0.0	 0.0	 0.0	 0.0;
	70	 177.0	 53.0	 120.0	 -14.0	 1.0325	 235.0	 0	 225.0	 129.0	 0.0	 0.0	 0.0	 0.0	 0.0	 0.0	 0.0	 0.0	 0.0	 0.0	 0.0;
	71	 177.0	 44.5	 99.0	 -10.0	 1.0325	 235.0	 1	 225.0	 129.0	 0.0	 0.0	 0.0	 0.0	 0.0	 0.0	 0.0	 0.0	 0.0	 0.0	 0.0;
	71	 177.0	 53.0	 120.0	 -14.0	 1.0325	 235.0	 1	 225.0	 129.0	 0.0	 0.0	 0.0	 0.0	 0.0	 0.0	 0.0	 0.0	 0.0	 0.0	 0.0;
	92	 180.0	 63.5	 134.0	 -7.0	 1.08182	 271.0	 1	 220.0	 140.0	 0.0	 0.0	 0.0	 0.0	 0.0	 0.0	 0.0	 0.0	 0.0	 0.0	 0.0;
	92	 182.5	 62.5	 131.0	 -6.0	 1.08182	 271.0	 1	 225.0	 140.0	 0.0	 0.0	 0.0	 0.0	 0.0	 0.0	 0.0	 0.0	 0.0	 0.0	 0.0;
	93	 182.5	 62.5	 131.0	 -6.0	 1.08182	 271.0	 0	 225.0	 140.0	 0.0	 0.0	 0.0	 0.0	 0.0	 0.0	 0.0	 0.0	 0.0	 0.0	 0.0;
	93	 182.5	 62.5	 131.0	 -6.0	 1.08182	 271.0	 1	 225.0	 140.0	 0.0	 0.0	 0.0	 0.0	 0.0	 0.0	 0.0	 0.0	 0.0	 0.0	 0.0;
	93	 182.5	 62.5	 131.0	 -6.0	 1.08182	 271.0	 1	 225.0	 140.0	 0.0	 0.0	 0.0	 0.0	 0.0	 0.0	 0.0	 0.0	 0.0	 0.0	 0.0;
	96	 281.5	 91.5	 213.0	 -30.0	 1.0375	 426.0	 1	 383.0	 180.0	 0.0	 0.0	 0.0	 0.0	 0.0	 0.0	 0.0	 0.0	 0.0	 0.0	 0.0;
	96	 280.0	 90.5	 212.0	 -31.0	 1.0375	 435.0	 1	 380.0	 180.0	 0.0	 0.0	 0.0	 0.0	 0.0	 0.0	 0.0	 0.0	 0.0	 0.0	 0.0;
	113	 6.0	 0.0	 0.0	 0.0	 1.07727	 12.0	 0	 12.0	 0.0	 0.0	 0.0	 0.0	 0.0	 0.0	 0.0	 0.0	 0.0	 0.0	 0.0	 0.0;
	113	 3.0	 0.0	 0.0	 0.0	 1.07727	 6.0	 0	 6.0	 0.0	 0.0	 0.0	 0.0	 0.0	 0.0	 0.0	 0.0	 0.0	 0.0	 0.0	 0.0;
	113	 10.5	 0.0	 0.0	 0.0	 1.07727	 26.0	 1	 21.0	 0.0	 0.0	 0.0	 0.0	 0.0	 0.0	 0.0	 0.0	 0.0	 0.0	 0.0	 0.0;
	119	 172.5	 55.0	 120.0	 -10.0	 1.08182	 271.0	 1	 225.0	 120.0	 0.0	 0.0	 0.0	 0.0	 0.0	 0.0	 0.0	 0.0	 0.0	 0.0	 0.0;
	120	 172.5	 55.0	 120.0	 -10.0	 1.08182	 271.0	 1	 225.0	 120.0	 0.0	 0.0	 0.0	 0.0	 0.0	 0.0	 0.0	 0.0	 0.0	 0.0	 0.0;
	121	 95.0	 36.0	 73.0	 -1.0	 1.08182	 150.0	 1	 120.0	 70.0	 0.0	 0.0	 0.0	 0.0	 0.0	 0.0	 0.0	 0.0	 0.0	 0.0	 0.0;
	122	 95.0	 36.0	 73.0	 -1.0	 1.08182	 150.0	 1	 120.0	 70.0	 0.0	 0.0	 0.0	 0.0	 0.0	 0.0	 0.0	 0.0	 0.0	 0.0	 0.0;
	132	 95.0	 39.5	 79.0	 0.0	 1.07727	 150.0	 0	 120.0	 70.0	 0.0	 0.0	 0.0	 0.0	 0.0	 0.0	 0.0	 0.0	 0.0	 0.0	 0.0;
	133	 95.0	 39.5	 79.0	 0.0	 1.07727	 150.0	 1	 120.0	 70.0	 0.0	 0.0	 0.0	 0.0	 0.0	 0.0	 0.0	 0.0	 0.0	 0.0	 0.0;
	134	 95.0	 15.5	 31.0	 0.0	 1.07273	 118.0	 1	 110.0	 80.0	 0.0	 0.0	 0.0	 0.0	 0.0	 0.0	 0.0	 0.0	 0.0	 0.0	 0.0;
	142	 175.0	 50.0	 135.0	 -35.0	 1.08182	 271.0	 1	 215.0	 135.0	 0.0	 0.0	 0.0	 0.0	 0.0	 0.0	 0.0	 0.0	 0.0	 0.0	 0.0;
	143	 175.0	 50.0	 135.0	 -35.0	 1.08182	 271.0	 1	 215.0	 135.0	 0.0	 0.0	 0.0	 0.0	 0.0	 0.0	 0.0	 0.0	 0.0	 0.0	 0.0;
	143	 180.0	 52.5	 140.0	 -35.0	 1.08182	 271.0	 1	 225.0	 135.0	 0.0	 0.0	 0.0	 0.0	 0.0	 0.0	 0.0	 0.0	 0.0	 0.0	 0.0;
	144	 180.0	 52.0	 140.0	 -36.0	 1.0375	 271.0	 1	 225.0	 135.0	 0.0	 0.0	 0.0	 0.0	 0.0	 0.0	 0.0	 0.0	 0.0	 0.0	 0.0;
	144	 177.5	 50.5	 137.0	 -36.0	 1.0375	 271.0	 1	 220.0	 135.0	 0.0	 0.0	 0.0	 0.0	 0.0	 0.0	 0.0	 0.0	 0.0	 0.0	 0.0;
	150	 0.0	 21.5	 72.0	 -29.0	 1.04091	 150.0	 0	 135.0	 -135.0	 0.0	 0.0	 0.0	 0.0	 0.0	 0.0	 0.0	 0.0	 0.0	 0.0	 0.0;
	150	 0.0	 21.5	 72.0	 -29.0	 1.04091	 150.0	 0	 135.0	 -135.0	 0.0	 0.0	 0.0	 0.0	 0.0	 0.0	 0.0	 0.0	 0.0	 0.0	 0.0;
	151	 0.0	 21.5	 72.0	 -29.0	 1.04091	 150.0	 0	 135.0	 -135.0	 0.0	 0.0	 0.0	 0.0	 0.0	 0.0	 0.0	 0.0	 0.0	 0.0	 0.0;
	151	 0.0	 21.5	 72.0	 -29.0	 1.04091	 150.0	 0	 135.0	 -135.0	 0.0	 0.0	 0.0	 0.0	 0.0	 0.0	 0.0	 0.0	 0.0	 0.0	 0.0;
	152	 110.0	 35.0	 85.0	 -15.0	 1.06818	 150.0	 1	 120.0	 100.0	 0.0	 0.0	 0.0	 0.0	 0.0	 0.0	 0.0	 0.0	 0.0	 0.0	 0.0;
	152	 110.0	 35.0	 85.0	 -15.0	 1.06818	 150.0	 0	 120.0	 100.0	 0.0	 0.0	 0.0	 0.0	 0.0	 0.0	 0.0	 0.0	 0.0	 0.0	 0.0;
	153	 110.0	 35.0	 85.0	 -15.0	 1.06818	 150.0	 1	 120.0	 100.0	 0.0	 0.0	 0.0	 0.0	 0.0	 0.0	 0.0	 0.0	 0.0	 0.0	 0.0;
	167	 45.0	 6.0	 12.0	 0.0	 1.05	 51.0	 0	 50.0	 40.0	 0.0	 0.0	 0.0	 0.0	 0.0	 0.0	 0.0	 0.0	 0.0	 0.0	 0.0;
	169	 170.0	 45.0	 111.0	 -21.0	 1.08182	 238.0	 1	 205.0	 135.0	 0.0	 0.0	 0.0	 0.0	 0.0	 0.0	 0.0	 0.0	 0.0	 0.0	 0.0;
	170	 156.0	 43.5	 102.0	 -15.0	 1.08182	 252.0	 0	 222.0	 90.0	 0.0	 0.0	 0.0	 0.0	 0.0	 0.0	 0.0	 0.0	 0.0	 0.0	 0.0;
	170	 170.0	 45.0	 111.0	 -21.0	 1.08182	 238.0	 0	 205.0	 135.0	 0.0	 0.0	 0.0	 0.0	 0.0	 0.0	 0.0	 0.0	 0.0	 0.0	 0.0;
	170	 166.0	 44.0	 119.0	 -31.0	 1.08182	 252.0	 1	 232.0	 100.0	 0.0	 0.0	 0.0	 0.0	 0.0	 0.0	 0.0	 0.0	 0.0	 0.0	 0.0;
	171	 156.0	 43.5	 102.0	 -15.0	 1.0325	 252.0	 1	 222.0	 90.0	 0.0	 0.0	 0.0	 0.0	 0.0	 0.0	 0.0	 0.0	 0.0	 0.0	 0.0;
	172	 166.0	 41.5	 93.0	 -10.0	 1.0325	 252.0	 0	 232.0	 100.0	 0.0	 0.0	 0.0	 0.0	 0.0	 0.0	 0.0	 0.0	 0.0	 0.0	 0.0;
	172	 156.0	 43.5	 102.0	 -15.0	 1.0325	 252.0	 1	 222.0	 90.0	 0.0	 0.0	 0.0	 0.0	 0.0	 0.0	 0.0	 0.0	 0.0	 0.0	 0.0;
	177	 182.5	 46.0	 127.0	 -35.0	 1.09091	 287.0	 1	 261.0	 104.0	 0.0	 0.0	 0.0	 0.0	 0.0	 0.0	 0.0	 0.0	 0.0	 0.0	 0.0;
	177	 164.5	 53.5	 145.0	 -38.0	 1.09091	 264.0	 1	 235.0	 94.0	 0.0	 0.0	 0.0	 0.0	 0.0	 0.0	 0.0	 0.0	 0.0	 0.0	 0.0;
	178	 163.0	 43.0	 103.0	 -17.0	 1.09091	 238.0	 0	 206.0	 120.0	 0.0	 0.0	 0.0	 0.0	 0.0	 0.0	 0.0	 0.0	 0.0	 0.0	 0.0;
	178	 164.5	 53.5	 145.0	 -38.0	 1.09091	 264.0	 1	 235.0	 94.0	 0.0	 0.0	 0.0	 0.0	 0.0	 0.0	 0.0	 0.0	 0.0	 0.0	 0.0;
	178	 182.5	 46.0	 127.0	 -35.0	 1.09091	 287.0	 1	 261.0	 104.0	 0.0	 0.0	 0.0	 0.0	 0.0	 0.0	 0.0	 0.0	 0.0	 0.0	 0.0;
	178	 182.5	 46.0	 127.0	 -35.0	 1.09091	 287.0	 1	 261.0	 104.0	 0.0	 0.0	 0.0	 0.0	 0.0	 0.0	 0.0	 0.0	 0.0	 0.0	 0.0;
	180	 163.0	 43.0	 103.0	 -17.0	 1.03	 238.0	 1	 206.0	 120.0	 0.0	 0.0	 0.0	 0.0	 0.0	 0.0	 0.0	 0.0	 0.0	 0.0	 0.0;
	180	 163.0	 43.0	 103.0	 -17.0	 1.03	 238.0	 1	 206.0	 120.0	 0.0	 0.0	 0.0	 0.0	 0.0	 0.0	 0.0	 0.0	 0.0	 0.0	 0.0;
	188	 187.5	 40.0	 112.0	 -32.0	 1.05455	 233.0	 1	 225.0	 150.0	 0.0	 0.0	 0.0	 0.0	 0.0	 0.0	 0.0	 0.0	 0.0	 0.0	 0.0;
	189	 175.0	 40.0	 112.0	 -32.0	 1.05455	 233.0	 1	 200.0	 150.0	 0.0	 0.0	 0.0	 0.0	 0.0	 0.0	 0.0	 0.0	 0.0	 0.0	 0.0;
	189	 175.0	 40.0	 112.0	 -32.0	 1.05455	 233.0	 0	 200.0	 150.0	 0.0	 0.0	 0.0	 0.0	 0.0	 0.0	 0.0	 0.0	 0.0	 0.0	 0.0;
	189	 175.0	 40.0	 112.0	 -32.0	 1.05455	 233.0	 1	 200.0	 150.0	 0.0	 0.0	 0.0	 0.0	 0.0	 0.0	 0.0	 0.0	 0.0	 0.0	 0.0;
	190	 325.0	 17.5	 294.0	 -259.0	 1.005	 464.0	 1	 464.0	 186.0	 0.0	 0.0	 0.0	 0.0	 0.0	 0.0	 0.0	 0.0	 0.0	 0.0	 0.0;
	204	 132.0	 50.0	 100.0	 0.0	 1.0	 218.0	 0	 188.0	 76.0	 0.0	 0.0	 0.0	 0.0	 0.0	 0.0	 0.0	 0.0	 0.0	 0.0	 0.0;
	236	 -10.5	 21.5	 105.0	 -62.0	 1.0375	 209.0	 1	 179.0	 -200.0	 0.0	 0.0	 0.0	 0.0	 0.0	 0.0	 0.0	 0.0	 0.0	 0.0	 0.0;
	236	 -10.5	 21.5	 105.0	 -62.0	 1.0375	 209.0	 1	 179.0	 -200.0	 0.0	 0.0	 0.0	 0.0	 0.0	 0.0	 0.0	 0.0	 0.0	 0.0	 0.0;
	236	 -10.5	 27.5	 130.0	 -75.0	 1.0375	 209.0	 1	 179.0	 -200.0	 0.0	 0.0	 0.0	 0.0	 0.0	 0.0	 0.0	 0.0	 0.0	 0.0	 0.0;
	237	 -10.5	 30.0	 160.0	 -100.0	 1.0375	 209.0	 1	 179.0	 -200.0	 0.0	 0.0	 0.0	 0.0	 0.0	 0.0	 0.0	 0.0	 0.0	 0.0	 0.0;
	240	 181.5	 75.0	 150.0	 0.0	 1.09091	 156.0	 1	 250.0	 113.0	 0.0	 0.0	 0.0	 0.0	 0.0	 0.0	 0.0	 0.0	 0.0	 0.0	 0.0;
	250	 39.0	 10.0	 20.0	 0.0	 1.08182	 79.0	 0	 55.0	 23.0	 0.0	 0.0	 0.0	 0.0	 0.0	 0.0	 0.0	 0.0	 0.0	 0.0	 0.0;
	250	 37.5	 10.0	 20.0	 0.0	 1.08182	 69.0	 0	 50.0	 25.0	 0.0	 0.0	 0.0	 0.0	 0.0	 0.0	 0.0	 0.0	 0.0	 0.0	 0.0;
	251	 15.0	 10.0	 20.0	 0.0	 1.08182	 28.0	 1	 23.0	 7.0	 0.0	 0.0	 0.0	 0.0	 0.0	 0.0	 0.0	 0.0	 0.0	 0.0	 0.0;
	251	 37.5	 10.0	 20.0	 0.0	 1.08182	 69.0	 0	 50.0	 25.0	 0.0	 0.0	 0.0	 0.0	 0.0	 0.0	 0.0	 0.0	 0.0	 0.0	 0.0;
	267	 1.0	 0.5	 1.0	 0.0	 1.07273	 1.0	 1	 2.0	 0.0	 0.0	 0.0	 0.0	 0.0	 0.0	 0.0	 0.0	 0.0	 0.0	 0.0	 0.0;
	268	 1.0	 0.5	 1.0	 0.0	 1.06364	 1.0	 1	 2.0	 0.0	 0.0	 0.0	 0.0	 0.0	 0.0	 0.0	 0.0	 0.0	 0.0	 0.0	 0.0;
	282	 6.5	 2.5	 5.0	 0.0	 1.07273	 10.0	 0	 7.0	 6.0	 0.0	 0.0	 0.0	 0.0	 0.0	 0.0	 0.0	 0.0	 0.0	 0.0	 0.0;
	283	 6.5	 2.5	 5.0	 0.0	 1.07273	 10.0	 0	 7.0	 6.0	 0.0	 0.0	 0.0	 0.0	 0.0	 0.0	 0.0	 0.0	 0.0	 0.0	 0.0;
	301	 3.0	 1.875	 3.75	 0.0	 1.04545	 5.0	 1	 5.0	 1.0	 0.0	 0.0	 0.0	 0.0	 0.0	 0.0	 0.0	 0.0	 0.0	 0.0	 0.0;
	301	 3.0	 1.875	 3.75	 0.0	 1.04545	 5.0	 1	 5.0	 1.0	 0.0	 0.0	 0.0	 0.0	 0.0	 0.0	 0.0	 0.0	 0.0	 0.0	 0.0;
	301	 3.0	 1.875	 3.75	 0.0	 1.04545	 5.0	 1	 5.0	 1.0	 0.0	 0.0	 0.0	 0.0	 0.0	 0.0	 0.0	 0.0	 0.0	 0.0	 0.0;
	302	 3.0	 1.875	 3.75	 0.0	 1.04545	 5.0	 1	 5.0	 1.0	 0.0	 0.0	 0.0	 0.0	 0.0	 0.0	 0.0	 0.0	 0.0	 0.0	 0.0;
	316	 305.0	 85.5	 190.0	 -19.0	 1.0	 426.0	 1	 370.0	 240.0	 0.0	 0.0	 0.0	 0.0	 0.0	 0.0	 0.0	 0.0	 0.0	 0.0	 0.0;
	322	 3.5	 1.0	 2.0	 0.0	 1.03636	 4.0	 0	 6.0	 1.0	 0.0	 0.0	 0.0	 0.0	 0.0	 0.0	 0.0	 0.0	 0.0	 0.0	 0.0;
	322	 3.5	 1.0	 2.0	 0.0	 1.03636	 4.0	 0	 6.0	 1.0	 0.0	 0.0	 0.0	 0.0	 0.0	 0.0	 0.0	 0.0	 0.0	 0.0	 0.0;
	369	 15.0	 2.0	 4.0	 0.0	 1.07273	 30.0	 1	 30.0	 0.0	 0.0	 0.0	 0.0	 0.0	 0.0	 0.0	 0.0	 0.0	 0.0	 0.0	 0.0;
	398	 6.0	 2.5	 5.0	 0.0	 1.08182	 8.0	 0	 7.0	 5.0	 0.0	 0.0	 0.0	 0.0	 0.0	 0.0	 0.0	 0.0	 0.0	 0.0	 0.0;
	402	 0.5	 0.5	 1.0	 0.0	 1.08182	 1.0	 1	 1.0	 0.0	 0.0	 0.0	 0.0	 0.0	 0.0	 0.0	 0.0	 0.0	 0.0	 0.0	 0.0;
	402	 0.5	 0.5	 1.0	 0.0	 1.08182	 1.0	 1	 1.0	 0.0	 0.0	 0.0	 0.0	 0.0	 0.0	 0.0	 0.0	 0.0	 0.0	 0.0	 0.0;
	402	 0.5	 0.5	 1.0	 0.0	 1.08182	 1.0	 1	 1.0	 0.0	 0.0	 0.0	 0.0	 0.0	 0.0	 0.0	 0.0	 0.0	 0.0	 0.0	 0.0;
	409	 19.0	 3.5	 7.0	 0.0	 1.07545	 31.0	 0	 27.0	 11.0	 0.0	 0.0	 0.0	 0.0	 0.0	 0.0	 0.0	 0.0	 0.0	 0.0	 0.0;
	409	 20.5	 3.5	 7.0	 0.0	 1.07545	 39.0	 1	 30.0	 11.0	 0.0	 0.0	 0.0	 0.0	 0.0	 0.0	 0.0	 0.0	 0.0	 0.0	 0.0;
	409	 19.5	 3.0	 6.0	 0.0	 1.07545	 41.0	 0	 30.0	 9.0	 0.0	 0.0	 0.0	 0.0	 0.0	 0.0	 0.0	 0.0	 0.0	 0.0	 0.0;
	411	 37.5	 7.5	 15.0	 0.0	 1.07273	 69.0	 0	 55.0	 20.0	 0.0	 0.0	 0.0	 0.0	 0.0	 0.0	 0.0	 0.0	 0.0	 0.0	 0.0;
	411	 37.5	 7.5	 15.0	 0.0	 1.07273	 69.0	 1	 55.0	 20.0	 0.0	 0.0	 0.0	 0.0	 0.0	 0.0	 0.0	 0.0	 0.0	 0.0	 0.0;
	412	 25.0	 7.5	 15.0	 0.0	 1.07273	 49.0	 0	 40.0	 10.0	 0.0	 0.0	 0.0	 0.0	 0.0	 0.0	 0.0	 0.0	 0.0	 0.0	 0.0;
	412	 37.5	 7.5	 15.0	 0.0	 1.07273	 69.0	 0	 55.0	 20.0	 0.0	 0.0	 0.0	 0.0	 0.0	 0.0	 0.0	 0.0	 0.0	 0.0	 0.0;
	414	 37.5	 10.0	 20.0	 0.0	 1.07273	 69.0	 0	 50.0	 25.0	 0.0	 0.0	 0.0	 0.0	 0.0	 0.0	 0.0	 0.0	 0.0	 0.0	 0.0;
	414	 77.5	 10.0	 20.0	 0.0	 1.07273	 147.0	 0	 100.0	 55.0	 0.0	 0.0	 0.0	 0.0	 0.0	 0.0	 0.0	 0.0	 0.0	 0.0	 0.0;
	415	 42.5	 20.0	 40.0	 0.0	 1.07273	 69.0	 1	 60.0	 25.0	 0.0	 0.0	 0.0	 0.0	 0.0	 0.0	 0.0	 0.0	 0.0	 0.0	 0.0;
	428	 2.5	 1.5	 3.0	 0.0	 1.07273	 4.0	 1	 3.0	 2.0	 0.0	 0.0	 0.0	 0.0	 0.0	 0.0	 0.0	 0.0	 0.0	 0.0	 0.0;
	466	 1.5	 0.5	 1.0	 0.0	 1.06364	 2.0	 0	 2.0	 1.0	 0.0	 0.0	 0.0	 0.0	 0.0	 0.0	 0.0	 0.0	 0.0	 0.0	 0.0;
	492	 33.5	 17.5	 57.0	 -22.0	 1.07273	 69.0	 1	 52.0	 15.0	 0.0	 0.0	 0.0	 0.0	 0.0	 0.0	 0.0	 0.0	 0.0	 0.0	 0.0;
	493	 35.0	 17.5	 57.0	 -22.0	 1.07273	 69.0	 1	 55.0	 15.0	 0.0	 0.0	 0.0	 0.0	 0.0	 0.0	 0.0	 0.0	 0.0	 0.0	 0.0;
	494	 35.0	 17.5	 57.0	 -22.0	 1.08182	 69.0	 1	 55.0	 15.0	 0.0	 0.0	 0.0	 0.0	 0.0	 0.0	 0.0	 0.0	 0.0	 0.0	 0.0;
	494	 35.0	 17.5	 57.0	 -22.0	 1.08182	 69.0	 1	 55.0	 15.0	 0.0	 0.0	 0.0	 0.0	 0.0	 0.0	 0.0	 0.0	 0.0	 0.0	 0.0;
	495	 35.0	 17.5	 57.0	 -22.0	 1.07273	 69.0	 1	 55.0	 15.0	 0.0	 0.0	 0.0	 0.0	 0.0	 0.0	 0.0	 0.0	 0.0	 0.0	 0.0;
	495	 40.0	 21.5	 71.0	 -28.0	 1.07273	 88.0	 1	 77.0	 3.0	 0.0	 0.0	 0.0	 0.0	 0.0	 0.0	 0.0	 0.0	 0.0	 0.0	 0.0;
	517	 173.0	 50.5	 162.0	 -61.0	 1.09091	 235.0	 1	 226.0	 120.0	 0.0	 0.0	 0.0	 0.0	 0.0	 0.0	 0.0	 0.0	 0.0	 0.0	 0.0;
	517	 18.5	 6.0	 12.0	 0.0	 1.09091	 49.0	 0	 25.0	 12.0	 0.0	 0.0	 0.0	 0.0	 0.0	 0.0	 0.0	 0.0	 0.0	 0.0	 0.0;
	518	 13.5	 6.0	 12.0	 0.0	 1.1	 49.0	 1	 17.0	 10.0	 0.0	 0.0	 0.0	 0.0	 0.0	 0.0	 0.0	 0.0	 0.0	 0.0	 0.0;
	522	 4.0	 1.0	 2.0	 0.0	 1.06364	 6.0	 0	 4.0	 4.0	 0.0	 0.0	 0.0	 0.0	 0.0	 0.0	 0.0	 0.0	 0.0	 0.0	 0.0;
	542	 0.0	 0.1	 0.2	 0.0	 1.08182	 0.0	 1	 0.0	 0.0	 0.0	 0.0	 0.0	 0.0	 0.0	 0.0	 0.0	 0.0	 0.0	 0.0	 0.0;
	571	 5.0	 2.0	 4.0	 0.0	 1.04545	 8.0	 0	 7.0	 3.0	 0.0	 0.0	 0.0	 0.0	 0.0	 0.0	 0.0	 0.0	 0.0	 0.0	 0.0;
	580	 3.0	 1.5	 3.0	 0.0	 1.08182	 5.0	 0	 3.0	 3.0	 0.0	 0.0	 0.0	 0.0	 0.0	 0.0	 0.0	 0.0	 0.0	 0.0	 0.0;
	587	 4.0	 4.25	 4.7	 3.8	 1.06364	 7.0	 1	 7.0	 1.0	 0.0	 0.0	 0.0	 0.0	 0.0	 0.0	 0.0	 0.0	 0.0	 0.0	 0.0;
	587	 4.0	 4.25	 4.7	 3.8	 1.06364	 7.0	 1	 7.0	 1.0	 0.0	 0.0	 0.0	 0.0	 0.0	 0.0	 0.0	 0.0	 0.0	 0.0	 0.0;
	587	 4.0	 4.25	 4.7	 3.8	 1.06364	 7.0	 0	 7.0	 1.0	 0.0	 0.0	 0.0	 0.0	 0.0	 0.0	 0.0	 0.0	 0.0	 0.0	 0.0;
	599	 2.5	 1.0	 2.0	 0.0	 1.07273	 4.0	 1	 3.0	 2.0	 0.0	 0.0	 0.0	 0.0	 0.0	 0.0	 0.0	 0.0	 0.0	 0.0	 0.0;
	633	 3.5	 1.0	 2.0	 0.0	 1.02727	 5.0	 0	 4.0	 3.0	 0.0	 0.0	 0.0	 0.0	 0.0	 0.0	 0.0	 0.0	 0.0	 0.0	 0.0;
	663	 1.5	 0.35	 0.7	 0.0	 1.05455	 2.0	 1	 2.0	 1.0	 0.0	 0.0	 0.0	 0.0	 0.0	 0.0	 0.0	 0.0	 0.0	 0.0	 0.0;
	663	 1.5	 0.35	 0.7	 0.0	 1.05455	 2.0	 0	 2.0	 1.0	 0.0	 0.0	 0.0	 0.0	 0.0	 0.0	 0.0	 0.0	 0.0	 0.0	 0.0;
	669	 3.5	 1.5	 3.0	 0.0	 1.06364	 6.0	 0	 4.0	 3.0	 0.0	 0.0	 0.0	 0.0	 0.0	 0.0	 0.0	 0.0	 0.0	 0.0	 0.0;
	740	 44.5	 18.5	 35.0	 2.0	 1.05455	 63.0	 1	 52.0	 37.0	 0.0	 0.0	 0.0	 0.0	 0.0	 0.0	 0.0	 0.0	 0.0	 0.0	 0.0;
	740	 20.0	 12.5	 23.0	 2.0	 1.05455	 38.0	 0	 30.0	 10.0	 0.0	 0.0	 0.0	 0.0	 0.0	 0.0	 0.0	 0.0	 0.0	 0.0	 0.0;
	740	 77.5	 45.5	 85.0	 6.0	 1.05455	 150.0	 0	 105.0	 50.0	 0.0	 0.0	 0.0	 0.0	 0.0	 0.0	 0.0	 0.0	 0.0	 0.0	 0.0;
	740	 77.5	 45.5	 85.0	 6.0	 1.05455	 150.0	 1	 105.0	 50.0	 0.0	 0.0	 0.0	 0.0	 0.0	 0.0	 0.0	 0.0	 0.0	 0.0	 0.0;
	741	 20.0	 12.5	 23.0	 2.0	 1.05455	 38.0	 0	 30.0	 10.0	 0.0	 0.0	 0.0	 0.0	 0.0	 0.0	 0.0	 0.0	 0.0	 0.0	 0.0;
	741	 20.0	 12.5	 23.0	 2.0	 1.05455	 38.0	 0	 30.0	 10.0	 0.0	 0.0	 0.0	 0.0	 0.0	 0.0	 0.0	 0.0	 0.0	 0.0	 0.0;
	741	 20.0	 13.5	 25.0	 2.0	 1.05455	 38.0	 1	 30.0	 10.0	 0.0	 0.0	 0.0	 0.0	 0.0	 0.0	 0.0	 0.0	 0.0	 0.0	 0.0;
	741	 96.5	 45.5	 85.0	 6.0	 1.05455	 150.0	 1	 125.0	 68.0	 0.0	 0.0	 0.0	 0.0	 0.0	 0.0	 0.0	 0.0	 0.0	 0.0	 0.0;
	741	 77.5	 45.5	 85.0	 6.0	 1.05455	 150.0	 0	 105.0	 50.0	 0.0	 0.0	 0.0	 0.0	 0.0	 0.0	 0.0	 0.0	 0.0	 0.0	 0.0;
	762	 1.5	 0.35	 0.7	 0.0	 1.04545	 2.0	 1	 2.0	 1.0	 0.0	 0.0	 0.0	 0.0	 0.0	 0.0	 0.0	 0.0	 0.0	 0.0	 0.0;
	764	 0.5	 0.5	 1.0	 0.0	 1.06364	 4.0	 1	 1.0	 0.0	 0.0	 0.0	 0.0	 0.0	 0.0	 0.0	 0.0	 0.0	 0.0	 0.0	 0.0;
	772	 22.0	 10.0	 18.0	 2.0	 1.05455	 38.0	 0	 35.0	 9.0	 0.0	 0.0	 0.0	 0.0	 0.0	 0.0	 0.0	 0.0	 0.0	 0.0	 0.0;
	772	 14.5	 16.0	 30.0	 2.0	 1.05455	 38.0	 1	 20.0	 9.0	 0.0	 0.0	 0.0	 0.0	 0.0	 0.0	 0.0	 0.0	 0.0	 0.0	 0.0;
	773	 22.0	 10.0	 18.0	 2.0	 1.05455	 38.0	 0	 35.0	 9.0	 0.0	 0.0	 0.0	 0.0	 0.0	 0.0	 0.0	 0.0	 0.0	 0.0	 0.0;
	773	 22.0	 10.0	 18.0	 2.0	 1.05455	 38.0	 0	 35.0	 9.0	 0.0	 0.0	 0.0	 0.0	 0.0	 0.0	 0.0	 0.0	 0.0	 0.0	 0.0;
	773	 22.0	 10.0	 18.0	 2.0	 1.05455	 38.0	 0	 35.0	 9.0	 0.0	 0.0	 0.0	 0.0	 0.0	 0.0	 0.0	 0.0	 0.0	 0.0	 0.0;
	773	 63.5	 35.5	 65.0	 6.0	 1.05455	 121.0	 1	 97.0	 30.0	 0.0	 0.0	 0.0	 0.0	 0.0	 0.0	 0.0	 0.0	 0.0	 0.0	 0.0;
	774	 22.0	 10.0	 18.0	 2.0	 1.05455	 38.0	 0	 35.0	 9.0	 0.0	 0.0	 0.0	 0.0	 0.0	 0.0	 0.0	 0.0	 0.0	 0.0	 0.0;
	774	 19.5	 10.0	 18.0	 2.0	 1.05455	 38.0	 0	 30.0	 9.0	 0.0	 0.0	 0.0	 0.0	 0.0	 0.0	 0.0	 0.0	 0.0	 0.0	 0.0;
	774	 18.5	 8.0	 14.0	 2.0	 1.05455	 32.0	 0	 28.0	 9.0	 0.0	 0.0	 0.0	 0.0	 0.0	 0.0	 0.0	 0.0	 0.0	 0.0	 0.0;
	809	 4.5	 2.0	 4.0	 0.0	 1.07273	 5.0	 1	 8.0	 1.0	 0.0	 0.0	 0.0	 0.0	 0.0	 0.0	 0.0	 0.0	 0.0	 0.0	 0.0;
	809	 1.5	 1.0	 2.0	 0.0	 1.07273	 2.0	 0	 2.0	 1.0	 0.0	 0.0	 0.0	 0.0	 0.0	 0.0	 0.0	 0.0	 0.0	 0.0	 0.0;
	829	 4.0	 2.35	 4.5	 0.2	 1.04545	 6.0	 0	 4.0	 4.0	 0.0	 0.0	 0.0	 0.0	 0.0	 0.0	 0.0	 0.0	 0.0	 0.0	 0.0;
	844	 1.5	 0.0	 0.0	 0.0	 1.07273	 6.0	 1	 3.0	 0.0	 0.0	 0.0	 0.0	 0.0	 0.0	 0.0	 0.0	 0.0	 0.0	 0.0	 0.0;
	853	 2.5	 0.0	 0.0	 0.0	 1.06364	 4.0	 0	 5.0	 0.0	 0.0	 0.0	 0.0	 0.0	 0.0	 0.0	 0.0	 0.0	 0.0	 0.0	 0.0;
	876	 46.5	 15.0	 30.0	 0.0	 1.08182	 65.0	 1	 93.0	 0.0	 0.0	 0.0	 0.0	 0.0	 0.0	 0.0	 0.0	 0.0	 0.0	 0.0	 0.0;
	876	 18.0	 15.0	 30.0	 0.0	 1.08182	 65.0	 1	 36.0	 0.0	 0.0	 0.0	 0.0	 0.0	 0.0	 0.0	 0.0	 0.0	 0.0	 0.0	 0.0;
	879	 1.5	 0.0	 0.0	 0.0	 1.06364	 12.0	 0	 3.0	 0.0	 0.0	 0.0	 0.0	 0.0	 0.0	 0.0	 0.0	 0.0	 0.0	 0.0	 0.0;
	886	 3.0	 0.0	 0.0	 0.0	 1.08182	 5.0	 0	 6.0	 0.0	 0.0	 0.0	 0.0	 0.0	 0.0	 0.0	 0.0	 0.0	 0.0	 0.0	 0.0;
	887	 3.0	 0.0	 0.0	 0.0	 1.08182	 6.0	 0	 6.0	 0.0	 0.0	 0.0	 0.0	 0.0	 0.0	 0.0	 0.0	 0.0	 0.0	 0.0	 0.0;
	922	 180.0	 58.0	 149.0	 -33.0	 1.09091	 235.0	 1	 225.0	 135.0	 0.0	 0.0	 0.0	 0.0	 0.0	 0.0	 0.0	 0.0	 0.0	 0.0	 0.0;
	923	 167.5	 58.0	 149.0	 -33.0	 1.09091	 235.0	 0	 225.0	 110.0	 0.0	 0.0	 0.0	 0.0	 0.0	 0.0	 0.0	 0.0	 0.0	 0.0	 0.0;
	931	 1.5	 0.0	 0.0	 0.0	 1.07273	 3.0	 0	 3.0	 0.0	 0.0	 0.0	 0.0	 0.0	 0.0	 0.0	 0.0	 0.0	 0.0	 0.0	 0.0;
	937	 6.0	 0.0	 0.0	 0.0	 1.07273	 12.0	 0	 12.0	 0.0	 0.0	 0.0	 0.0	 0.0	 0.0	 0.0	 0.0	 0.0	 0.0	 0.0	 0.0;
	947	 118.0	 15.0	 30.0	 0.0	 1.07273	 168.0	 0	 170.0	 66.0	 0.0	 0.0	 0.0	 0.0	 0.0	 0.0	 0.0	 0.0	 0.0	 0.0	 0.0;
	947	 47.5	 15.0	 30.0	 0.0	 1.07273	 72.0	 0	 61.0	 34.0	 0.0	 0.0	 0.0	 0.0	 0.0	 0.0	 0.0	 0.0	 0.0	 0.0	 0.0;
	953	 10.5	 0.0	 0.0	 0.0	 1.07273	 8.0	 0	 21.0	 0.0	 0.0	 0.0	 0.0	 0.0	 0.0	 0.0	 0.0	 0.0	 0.0	 0.0	 0.0;
	967	 3.5	 0.0	 0.0	 0.0	 1.07273	 6.0	 0	 7.0	 0.0	 0.0	 0.0	 0.0	 0.0	 0.0	 0.0	 0.0	 0.0	 0.0	 0.0	 0.0;
	970	 5.0	 0.0	 0.0	 0.0	 1.08182	 3.0	 0	 10.0	 0.0	 0.0	 0.0	 0.0	 0.0	 0.0	 0.0	 0.0	 0.0	 0.0	 0.0	 0.0;
	985	 15.0	 0.0	 0.0	 0.0	 1.08182	 3.0	 1	 30.0	 0.0	 0.0	 0.0	 0.0	 0.0	 0.0	 0.0	 0.0	 0.0	 0.0	 0.0	 0.0;
	990	 1.0	 0.0	 0.0	 0.0	 1.06364	 1.0	 1	 2.0	 0.0	 0.0	 0.0	 0.0	 0.0	 0.0	 0.0	 0.0	 0.0	 0.0	 0.0	 0.0;
	995	 1.0	 0.0	 0.0	 0.0	 1.06364	 1.0	 0	 2.0	 0.0	 0.0	 0.0	 0.0	 0.0	 0.0	 0.0	 0.0	 0.0	 0.0	 0.0	 0.0;
	1006	 1.5	 0.0	 0.0	 0.0	 1.06364	 2.0	 0	 2.0	 1.0	 0.0	 0.0	 0.0	 0.0	 0.0	 0.0	 0.0	 0.0	 0.0	 0.0	 0.0;
	1011	 177.0	 53.0	 120.0	 -14.0	 1.09091	 235.0	 1	 225.0	 129.0	 0.0	 0.0	 0.0	 0.0	 0.0	 0.0	 0.0	 0.0	 0.0	 0.0	 0.0;
	1013	 18.0	 15.0	 30.0	 0.0	 1.06364	 37.0	 0	 36.0	 0.0	 0.0	 0.0	 0.0	 0.0	 0.0	 0.0	 0.0	 0.0	 0.0	 0.0	 0.0;
	1016	 2.5	 0.0	 0.0	 0.0	 1.07273	 3.0	 0	 3.0	 2.0	 0.0	 0.0	 0.0	 0.0	 0.0	 0.0	 0.0	 0.0	 0.0	 0.0	 0.0;
	1036	 75.0	 15.0	 30.0	 0.0	 1.08182	 101.0	 0	 101.0	 49.0	 0.0	 0.0	 0.0	 0.0	 0.0	 0.0	 0.0	 0.0	 0.0	 0.0	 0.0;
	1042	 6.0	 0.0	 0.0	 0.0	 1.06364	 2.0	 0	 12.0	 0.0	 0.0	 0.0	 0.0	 0.0	 0.0	 0.0	 0.0	 0.0	 0.0	 0.0	 0.0;
	1057	 6.0	 15.0	 30.0	 0.0	 1.07273	 10.0	 1	 12.0	 0.0	 0.0	 0.0	 0.0	 0.0	 0.0	 0.0	 0.0	 0.0	 0.0	 0.0	 0.0;
	1060	 1.5	 0.0	 0.0	 0.0	 1.08182	 2.0	 0	 2.0	 1.0	 0.0	 0.0	 0.0	 0.0	 0.0	 0.0	 0.0	 0.0	 0.0	 0.0	 0.0;
	1062	 3.5	 0.0	 0.0	 0.0	 1.07273	 6.0	 0	 6.0	 1.0	 0.0	 0.0	 0.0	 0.0	 0.0	 0.0	 0.0	 0.0	 0.0	 0.0	 0.0;
	1067	 4.0	 0.0	 0.0	 0.0	 1.08182	 11.0	 1	 8.0	 0.0	 0.0	 0.0	 0.0	 0.0	 0.0	 0.0	 0.0	 0.0	 0.0	 0.0	 0.0;
	1071	 36.5	 11.5	 23.0	 0.0	 1.09091	 52.0	 0	 68.0	 5.0	 0.0	 0.0	 0.0	 0.0	 0.0	 0.0	 0.0	 0.0	 0.0	 0.0	 0.0;
	1071	 36.5	 11.5	 23.0	 0.0	 1.09091	 52.0	 1	 68.0	 5.0	 0.0	 0.0	 0.0	 0.0	 0.0	 0.0	 0.0	 0.0	 0.0	 0.0	 0.0;
	1071	 -0.5	 5.5	 11.0	 0.0	 1.09091	 25.0	 0	 31.0	 -32.0	 0.0	 0.0	 0.0	 0.0	 0.0	 0.0	 0.0	 0.0	 0.0	 0.0	 0.0;
	1071	 -0.5	 5.0	 10.0	 0.0	 1.09091	 25.0	 0	 31.0	 -32.0	 0.0	 0.0	 0.0	 0.0	 0.0	 0.0	 0.0	 0.0	 0.0	 0.0	 0.0;
	1086	 29.0	 11.5	 24.0	 -1.0	 1.08182	 69.0	 0	 50.0	 8.0	 0.0	 0.0	 0.0	 0.0	 0.0	 0.0	 0.0	 0.0	 0.0	 0.0	 0.0;
	1086	 108.5	 29.5	 74.0	 -15.0	 1.08182	 58.0	 1	 125.0	 92.0	 0.0	 0.0	 0.0	 0.0	 0.0	 0.0	 0.0	 0.0	 0.0	 0.0	 0.0;
	1087	 105.0	 29.5	 74.0	 -15.0	 1.08182	 58.0	 1	 125.0	 85.0	 0.0	 0.0	 0.0	 0.0	 0.0	 0.0	 0.0	 0.0	 0.0	 0.0	 0.0;
	1087	 26.5	 13.0	 28.0	 -2.0	 1.08182	 40.0	 0	 41.0	 12.0	 0.0	 0.0	 0.0	 0.0	 0.0	 0.0	 0.0	 0.0	 0.0	 0.0	 0.0;
	1099	 1.5	 0.0	 0.0	 0.0	 1.08182	 3.0	 0	 3.0	 0.0	 0.0	 0.0	 0.0	 0.0	 0.0	 0.0	 0.0	 0.0	 0.0	 0.0	 0.0;
	1126	 2.5	 0.0	 0.0	 0.0	 1.06364	 4.0	 0	 3.0	 2.0	 0.0	 0.0	 0.0	 0.0	 0.0	 0.0	 0.0	 0.0	 0.0	 0.0	 0.0;
	1132	 15.5	 0.0	 0.0	 0.0	 1.08182	 31.0	 1	 31.0	 0.0	 0.0	 0.0	 0.0	 0.0	 0.0	 0.0	 0.0	 0.0	 0.0	 0.0	 0.0;
...
];

%% generator cost data
%	2	startup	shutdown	n	c(n-1)	...	c0
mpc.gencost = [
	2	 0.0	 0.0	 3	   0.000000	 158.610000	   0.000000;
	2	 0.0	 0.0	 3	   0.000000	 158.610000	   0.000000;
	2	 0.0	 0.0	 3	   0.000000	 107.030000	   0.000000;
	2	 0.0	 0.0	 3	   0.000000	 107.030000	   0.000000;
	2	 0.0	 0.0	 3	   0.000000	 107.030000	   0.000000;
	2	 0.0	 0.0	 3	   0.000000	 107.030000	   0.000000;
	2	 0.0	 0.0	 3	   0.000000	 107.030000	   0.000000;
	2	 0.0	 0.0	 3	   0.000000	 107.030000	   0.000000;
	2	 0.0	 0.0	 3	   0.000000	 107.030000	   0.000000;
	2	 0.0	 0.0	 3	   0.000000	 107.030000	   0.000000;
	2	 0.0	 0.0	 3	   0.000000	 107.030000	   0.000000;
	2	 0.0	 0.0	 3	   0.000000	 107.030000	   0.000000;
	2	 0.0	 0.0	 3	   0.000000	 107.030000	   0.000000;
	2	 0.0	 0.0	 3	   0.000000	 143.520000	   0.000000;
	2	 0.0	 0.0	 3	   0.000000	 143.520000	   0.000000;
	2	 0.0	 0.0	 3	   0.000000	 143.520000	   0.000000;
	2	 0.0	 0.0	 3	   0.000000	 143.520000	   0.000000;
	2	 0.0	 0.0	 3	   0.000000	 143.520000	   0.000000;
	2	 0.0	 0.0	 3	   0.000000	 143.520000	   0.000000;
	2	 0.0	 0.0	 3	   0.000000	 143.520000	   0.000000;
	2	 0.0	 0.0	 3	   0.000000	 143.520000	   0.000000;
	2	 0.0	 0.0	 3	   0.000000	 148.160000	   0.000000;
	2	 0.0	 0.0	 3	   0.000000	 148.160000	   0.000000;
	2	 0.0	 0.0	 3	   0.000000	 148.160000	   0.000000;
	2	 0.0	 0.0	 3	   0.000000	 148.160000	   0.000000;
	2	 0.0	 0.0	 3	   0.000000	 148.160000	   0.000000;
	2	 0.0	 0.0	 3	   0.000000	 148.160000	   0.000000;
	2	 0.0	 0.0	 3	   0.000000	 148.160000	   0.000000;
	2	 0.0	 0.0	 3	   0.000000	 134.040000	   0.000000;
	2	 0.0	 0.0	 3	   0.000000	 134.040000	   0.000000;
	2	 0.0	 0.0	 3	   0.000000	 134.040000	   0.000000;
	2	 0.0	 0.0	 3	   0.000000	 134.040000	   0.000000;
	2	 0.0	 0.0	 3	   0.000000	 134.040000	   0.000000;
	2	 0.0	 0.0	 3	   0.000000	 126.620000	   0.000000;
	2	 0.0	 0.0	 3	   0.000000	 126.620000	   0.000000;
	2	 0.0	 0.0	 3	   0.000000	   0.000000	   0.000000;
	2	 0.0	 0.0	 3	   0.000000	   0.000000	   0.000000;
	2	 0.0	 0.0	 3	   0.000000	   0.000000	   0.000000;
	2	 0.0	 0.0	 3	   0.000000	 130.490000	   0.000000;
	2	 0.0	 0.0	 3	   0.000000	 130.490000	   0.000000;
	2	 0.0	 0.0	 3	   0.000000	 132.330000	   0.000000;
	2	 0.0	 0.0	 3	   0.000000	 132.330000	   0.000000;
	2	 0.0	 0.0	 3	   0.000000	 136.590000	   0.000000;
	2	 0.0	 0.0	 3	   0.000000	 136.590000	   0.000000;
	2	 0.0	 0.0	 3	   0.000000	 139.960000	   0.000000;
	2	 0.0	 0.0	 3	   0.000000	 128.210000	   0.000000;
	2	 0.0	 0.0	 3	   0.000000	 128.210000	   0.000000;
	2	 0.0	 0.0	 3	   0.000000	 128.210000	   0.000000;
	2	 0.0	 0.0	 3	   0.000000	 128.210000	   0.000000;
	2	 0.0	 0.0	 3	   0.000000	 128.210000	   0.000000;
	2	 0.0	 0.0	 3	   0.000000	 137.400000	   0.000000;
	2	 0.0	 0.0	 3	   0.000000	 137.400000	   0.000000;
	2	 0.0	 0.0	 3	   0.000000	 137.400000	   0.000000;
	2	 0.0	 0.0	 3	   0.000000	 137.400000	   0.000000;
	2	 0.0	 0.0	 3	   0.000000	 129.990000	   0.000000;
	2	 0.0	 0.0	 3	   0.000000	 129.990000	   0.000000;
	2	 0.0	 0.0	 3	   0.000000	 129.990000	   0.000000;
	2	 0.0	 0.0	 3	   0.000000	 135.600000	   0.000000;
	2	 0.0	 0.0	 3	   0.000000	 163.160000	   0.000000;
	2	 0.0	 0.0	 3	   0.000000	 163.160000	   0.000000;
	2	 0.0	 0.0	 3	   0.000000	 163.160000	   0.000000;
	2	 0.0	 0.0	 3	   0.000000	 163.160000	   0.000000;
	2	 0.0	 0.0	 3	   0.000000	 163.160000	   0.000000;
	2	 0.0	 0.0	 3	   0.000000	 163.160000	   0.000000;
	2	 0.0	 0.0	 3	   0.000000	 163.160000	   0.000000;
	2	 0.0	 0.0	 3	   0.000000	 139.010000	   0.000000;
	2	 0.0	 0.0	 3	   0.000000	 139.010000	   0.000000;
	2	 0.0	 0.0	 3	   0.000000	 139.010000	   0.000000;
	2	 0.0	 0.0	 3	   0.000000	 139.010000	   0.000000;
	2	 0.0	 0.0	 3	   0.000000	 139.010000	   0.000000;
	2	 0.0	 0.0	 3	   0.000000	 139.010000	   0.000000;
	2	 0.0	 0.0	 3	   0.000000	 139.010000	   0.000000;
	2	 0.0	 0.0	 3	   0.000000	 139.010000	   0.000000;
	2	 0.0	 0.0	 3	   0.000000	 125.480000	   0.000000;
	2	 0.0	 0.0	 3	   0.000000	 125.480000	   0.000000;
	2	 0.0	 0.0	 3	   0.000000	 125.480000	   0.000000;
	2	 0.0	 0.0	 3	   0.000000	 125.480000	   0.000000;
	2	 0.0	 0.0	 3	   0.000000	 125.480000	   0.000000;
	2	 0.0	 0.0	 3	   0.000000	 137.400000	   0.000000;
	2	 0.0	 0.0	 3	   0.000000	 137.400000	   0.000000;
	2	 0.0	 0.0	 3	   0.000000	 137.400000	   0.000000;
	2	 0.0	 0.0	 3	   0.000000	 137.400000	   0.000000;
	2	 0.0	 0.0	 3	   0.000000	 137.400000	   0.000000;
	2	 0.0	 0.0	 3	   0.000000	   0.000000	   0.000000;
	2	 0.0	 0.0	 3	   0.000000	   0.000000	   0.000000;
	2	 0.0	 0.0	 3	   0.000000	   0.000000	   0.000000;
	2	 0.0	 0.0	 3	   0.000000	   0.000000	   0.000000;
	2	 0.0	 0.0	 3	   0.000000	   0.000000	   0.000000;
	2	 0.0	 0.0	 3	   0.000000	   0.000000	   0.000000;
	2	 0.0	 0.0	 3	   0.000000	   0.000000	   0.000000;
	2	 0.0	 0.0	 3	   0.000000	   0.000000	   0.000000;
	2	 0.0	 0.0	 3	   0.000000	   0.000000	   0.000000;
	2	 0.0	 0.0	 3	   0.000000	   0.000000	   0.000000;
	2	 0.0	 0.0	 3	   0.000000	   0.000000	   0.000000;
	2	 0.0	 0.0	 3	   0.000000	   0.000000	   0.000000;
	2	 0.0	 0.0	 3	   0.000000	   0.000000	   0.000000;
	2	 0.0	 0.0	 3	   0.000000	 107.030000	   0.000000;
	2	 0.0	 0.0	 3	   0.000000	   0.000000	   0.000000;
	2	 0.0	 0.0	 3	   0.000000	   0.000000	   0.000000;
	2	 0.0	 0.0	 3	   0.000000	   0.000000	   0.000000;
	2	 0.0	 0.0	 3	   0.000000	   0.000000	   0.000000;
	2	 0.0	 0.0	 3	   0.000000	   0.000000	   0.000000;
	2	 0.0	 0.0	 3	   0.000000	   0.000000	   0.000000;
	2	 0.0	 0.0	 3	   0.000000	   0.000000	   0.000000;
	2	 0.0	 0.0	 3	   0.000000	   0.000000	   0.000000;
	2	 0.0	 0.0	 3	   0.000000	   0.000000	   0.000000;
	2	 0.0	 0.0	 3	   0.000000	   0.000000	   0.000000;
	2	 0.0	 0.0	 3	   0.000000	   0.000000	   0.000000;
	2	 0.0	 0.0	 3	   0.000000	   0.000000	   0.000000;
	2	 0.0	 0.0	 3	   0.000000	   0.000000	   0.000000;
	2	 0.0	 0.0	 3	   0.000000	   0.000000	   0.000000;
	2	 0.0	 0.0	 3	   0.000000	   0.000000	   0.000000;
	2	 0.0	 0.0	 3	   0.000000	   0.000000	   0.000000;
	2	 0.0	 0.0	 3	   0.000000	   0.000000	   0.000000;
	2	 0.0	 0.0	 3	   0.000000	   0.000000	   0.000000;
	2	 0.0	 0.0	 3	   0.000000	   0.000000	   0.000000;
	2	 0.0	 0.0	 3	   0.000000	   0.000000	   0.000000;
	2	 0.0	 0.0	 3	   0.000000	   0.000000	   0.000000;
	2	 0.0	 0.0	 3	   0.000000	   0.000000	   0.000000;
	2	 0.0	 0.0	 3	   0.000000	   0.000000	   0.000000;
	2	 0.0	 0.0	 3	   0.000000	   0.000000	   0.000000;
	2	 0.0	 0.0	 3	   0.000000	   0.000000	   0.000000;
	2	 0.0	 0.0	 3	   0.000000	 158.610000	   0.000000;
	2	 0.0	 0.0	 3	   0.000000	 158.610000	   0.000000;
	2	 0.0	 0.0	 3	   0.000000	 158.610000	   0.000000;
	2	 0.0	 0.0	 3	   0.000000	   0.000000	   0.000000;
	2	 0.0	 0.0	 3	   0.000000	   0.000000	   0.000000;
	2	 0.0	 0.0	 3	   0.000000	   0.000000	   0.000000;
	2	 0.0	 0.0	 3	   0.000000	   0.000000	   0.000000;
	2	 0.0	 0.0	 3	   0.000000	   0.000000	   0.000000;
	2	 0.0	 0.0	 3	   0.000000	   0.000000	   0.000000;
	2	 0.0	 0.0	 3	   0.000000	   0.000000	   0.000000;
	2	 0.0	 0.0	 3	   0.000000	   0.000000	   0.000000;
	2	 0.0	 0.0	 3	   0.000000	   0.000000	   0.000000;
	2	 0.0	 0.0	 3	   0.000000	   0.000000	   0.000000;
	2	 0.0	 0.0	 3	   0.000000	   0.000000	   0.000000;
	2	 0.0	 0.0	 3	   0.000000	   0.000000	   0.000000;
	2	 0.0	 0.0	 3	   0.000000	   0.000000	   0.000000;
	2	 0.0	 0.0	 3	   0.000000	   0.000000	   0.000000;
	2	 0.0	 0.0	 3	   0.000000	   0.000000	   0.000000;
	2	 0.0	 0.0	 3	   0.000000	   0.000000	   0.000000;
	2	 0.0	 0.0	 3	   0.000000	   0.000000	   0.000000;
	2	 0.0	 0.0	 3	   0.000000	   0.000000	   0.000000;
	2	 0.0	 0.0	 3	   0.000000	   0.000000	   0.000000;
	2	 0.0	 0.0	 3	   0.000000	   0.000000	   0.000000;
	2	 0.0	 0.0	 3	   0.000000	   0.000000	   0.000000;
	2	 0.0	 0.0	 3	   0.000000	   0.000000	   0.000000;
	2	 0.0	 0.0	 3	   0.000000	   0.000000	   0.000000;
	2	 0.0	 0.0	 3	   0.000000	   0.000000	   0.000000;
	2	 0.0	 0.0	 3	   0.000000	   0.000000	   0.000000;
	2	 0.0	 0.0	 3	   0.000000	   0.000000	   0.000000;
	2	 0.0	 0.0	 3	   0.000000	   0.000000	   0.000000;
	2	 0.0	 0.0	 3	   0.000000	   0.000000	   0.000000;
	2	 0.0	 0.0	 3	   0.000000	   0.000000	   0.000000;
	2	 0.0	 0.0	 3	   0.000000	   0.000000	   0.000000;
	2	 0.0	 0.0	 3	   0.000000	   0.000000	   0.000000;
	2	 0.0	 0.0	 3	   0.000000	   0.000000	   0.000000;
	2	 0.0	 0.0	 3	   0.000000	   0.000000	   0.000000;
	2	 0.0	 0.0	 3	   0.000000	   0.000000	   0.000000;
	2	 0.0	 0.0	 3	   0.000000	   0.000000	   0.000000;
	2	 0.0	 0.0	 3	   0.000000	   0.000000	   0.000000;
	2	 0.0	 0.0	 3	   0.000000	   0.000000	   0.000000;
	2	 0.0	 0.0	 3	   0.000000	   0.000000	   0.000000;
	2	 0.0	 0.0	 3	   0.000000	   0.000000	   0.000000;
	2	 0.0	 0.0	 3	   0.000000	   0.000000	   0.000000;
	2	 0.0	 0.0	 3	   0.000000	   0.000000	   0.000000;
	2	 0.0	 0.0	 3	   0.000000	   0.000000	   0.000000;
	2	 0.0	 0.0	 3	   0.000000	 143.520000	   0.000000;
	2	 0.0	 0.0	 3	   0.000000	 143.520000	   0.000000;
	2	 0.0	 0.0	 3	   0.000000	   0.000000	   0.000000;
	2	 0.0	 0.0	 3	   0.000000	   0.000000	   0.000000;
	2	 0.0	 0.0	 3	   0.000000	   0.000000	   0.000000;
	2	 0.0	 0.0	 3	   0.000000	   0.000000	   0.000000;
	2	 0.0	 0.0	 3	   0.000000	   0.000000	   0.000000;
	2	 0.0	 0.0	 3	   0.000000	   0.000000	   0.000000;
	2	 0.0	 0.0	 3	   0.000000	   0.000000	   0.000000;
	2	 0.0	 0.0	 3	   0.000000	   0.000000	   0.000000;
	2	 0.0	 0.0	 3	   0.000000	   0.000000	   0.000000;
	2	 0.0	 0.0	 3	   0.000000	   0.000000	   0.000000;
	2	 0.0	 0.0	 3	   0.000000	   0.000000	   0.000000;
	2	 0.0	 0.0	 3	   0.000000	 148.160000	   0.000000;
	2	 0.0	 0.0	 3	   0.000000	   0.000000	   0.000000;
	2	 0.0	 0.0	 3	   0.000000	   0.000000	   0.000000;
	2	 0.0	 0.0	 3	   0.000000	   0.000000	   0.000000;
	2	 0.0	 0.0	 3	   0.000000	   0.000000	   0.000000;
	2	 0.0	 0.0	 3	   0.000000	   0.000000	   0.000000;
	2	 0.0	 0.0	 3	   0.000000	   0.000000	   0.000000;
	2	 0.0	 0.0	 3	   0.000000	   0.000000	   0.000000;
	2	 0.0	 0.0	 3	   0.000000	   0.000000	   0.000000;
	2	 0.0	 0.0	 3	   0.000000	   0.000000	   0.000000;
	2	 0.0	 0.0	 3	   0.000000	   0.000000	   0.000000;
	2	 0.0	 0.0	 3	   0.000000	   0.000000	   0.000000;
	2	 0.0	 0.0	 3	   0.000000	   0.000000	   0.000000;
	2	 0.0	 0.0	 3	   0.000000	 157.000000	   0.000000;
	2	 0.0	 0.0	 3	   0.000000	 157.000000	   0.000000;
	2	 0.0	 0.0	 3	   0.000000	 157.000000	   0.000000;
	2	 0.0	 0.0	 3	   0.000000	 157.000000	   0.000000;
	2	 0.0	 0.0	 3	   0.000000	   0.000000	   0.000000;
	2	 0.0	 0.0	 3	   0.000000	   0.000000	   0.000000;
	2	 0.0	 0.0	 3	   0.000000	   0.000000	   0.000000;
...
];

%% branch data
%	fbus	tbus	r	x	b	rateA	rateB	rateC	ratio	angle	status	angmin	angmax
mpc.branch = [
	9	 11	 0.00064	 0.0305	 0.0	 400.0	 400.0	 400.0	 1.09271	 0.0	 1	 -8.766897	 8.766897;
	13	 12	 0.00069	 0.03946	 0.0	 250.0	 250.0	 250.0	 0.9999	 0.0	 1	 -8.766897	 8.766897;
	20	 18	 0.00088	 0.05709	 0.0	 330.0	 330.0	 330.0	 0.9999	 0.0	 1	 -8.766897	 8.766897;
	34	 33	 0.0007	 0.03652	 0.0	 250.0	 250.0	 250.0	 0.9999	 0.0	 1	 -8.766897	 8.766897;
	35	 37	 0.00036	 0.02519	 0.0	 500.0	 500.0	 500.0	 1.07313	 0.0	 1	 -8.766897	 8.766897;
	36	 38	 0.00036	 0.02519	 0.0	 500.0	 500.0	 500.0	 1.07313	 0.0	 1	 -8.766897	 8.766897;
	53	 54	 0.00034	 0.02097	 0.0	 500.0	 500.0	 500.0	 1.0755	 0.0	 1	 -8.766897	 8.766897;
	57	 59	 0.00034	 0.02097	 0.0	 500.0	 500.0	 500.0	 1.07313	 0.0	 1	 -8.766897	 8.766897;
	68	 70	 0.00081	 0.03	 0.0	 400.0	 400.0	 400.0	 1.10102	 0.0	 1	 -8.766897	 8.766897;
	105	 107	 0.00075	 0.02445	 -0.00832	 330.0	 330.0	 330.0	 1.039	 0.0	 1	 -8.766897	 8.766897;
	106	 108	 0.0004	 0.0253	 0.0	 500.0	 500.0	 500.0	 1.0457	 0.0	 1	 -8.766897	 8.766897;
	142	 145	 0.00053	 0.02875	 -0.016	 400.0	 400.0	 400.0	 1.06299	 0.0	 1	 -8.766897	 8.766897;
	170	 171	 0.00064	 0.0305	 0.0	 400.0	 400.0	 400.0	 1.07408	 0.0	 1	 -8.766897	 8.766897;
	177	 180	 0.00023	 0.023	 0.0	 500.0	 500.0	 500.0	 1.07426	 0.0	 1	 -8.766897	 8.766897;
	178	 181	 0.00023	 0.023	 0.0	 500.0	 500.0	 500.0	 1.07426	 0.0	 1	 -8.766897	 8.766897;
	185	 184	 0.00032	 0.04392	 0.0	 330.0	 330.0	 330.0	 0.9999	 0.0	 1	 -8.766897	 8.766897;
	188	 190	 0.0003	 0.02732	 0.0	 500.0	 500.0	 500.0	 1.10037	 0.0	 1	 -8.766897	 8.766897;
	195	 197	 0.00035	 0.02375	 0.0	 500.0	 500.0	 500.0	 1.08671	 0.0	 1	 -8.766897	 8.766897;
	208	 209	 0.00051	 0.0275	 0.0	 400.0	 400.0	 400.0	 1.07702	 0.0	 1	 -8.766897	 8.766897;
	213	 211	 0.00084	 0.06858	 0.0	 250.0	 250.0	 250.0	 0.9999	 0.0	 1	 -8.766897	 8.766897;
	216	 218	 0.00033	 0.02711	 0.0	 500.0	 500.0	 500.0	 1.08613	 0.0	 1	 -8.766897	 8.766897;
	220	 218	 0.00032	 0.0464	 0.0	 330.0	 330.0	 330.0	 0.9999	 0.0	 1	 -8.766897	 8.766897;
	227	 225	 0.00113	 0.05647	 0.0	 330.0	 330.0	 330.0	 0.9999	 0.0	 1	 -8.766897	 8.766897;
	224	 226	 0.00075	 0.02469	 -0.008	 330.0	 330.0	 330.0	 1.04544	 0.0	 1	 -8.766897	 8.766897;
	3116	 180	 0.00029	 0.00317	 0.09184	 773.0	 773.0	 773.0	 0.0	 0.0	 1	 -8.766897	 8.766897;
	3116	 181	 0.0003	 0.00326	 0.09536	 771.0	 771.0	 771.0	 0.0	 0.0	 1	 -8.766897	 8.766897;
	240	 82	 0.01475	 0.08595	 0.13036	 315.0	 315.0	 315.0	 0.0	 0.0	 1	 -8.766897	 8.766897;
	3114	 90	 0.01244	 0.06959	 0.10842	 309.0	 309.0	 309.0	 0.0	 0.0	 1	 -8.766897	 8.766897;
	3114	 120	 0.01207	 0.06905	 0.11519	 312.0	 312.0	 312.0	 0.0	 0.0	 1	 -8.766897	 8.766897;
	144	 3115	 0.00168	 0.01603	 0.51488	 724.0	 724.0	 724.0	 0.0	 0.0	 1	 -8.766897	 8.766897;
	3117	 169	 0.0018	 0.01616	 0.0484	 387.0	 387.0	 387.0	 0.0	 0.0	 1	 -8.766897	 8.766897;
	3117	 170	 0.0018	 0.01616	 0.0484	 387.0	 387.0	 387.0	 0.0	 0.0	 1	 -8.766897	 8.766897;
	3118	 61	 0.00223	 0.02209	 0.69011	 737.0	 737.0	 737.0	 0.0	 0.0	 1	 -8.766897	 8.766897;
	3118	 62	 0.00223	 0.02209	 0.69011	 737.0	 737.0	 737.0	 0.0	 0.0	 1	 -8.766897	 8.766897;
	97	 3113	 0.00293	 0.03054	 0.95472	 755.0	 755.0	 755.0	 0.0	 0.0	 1	 -8.766897	 8.766897;
	56	 28	 0.01174	 0.07014	 0.12689	 319.0	 319.0	 319.0	 0.0	 0.0	 1	 -8.766897	 8.766897;
	35	 105	 0.00919	 0.06614	 0.10451	 348.0	 348.0	 348.0	 0.0	 0.0	 1	 -8.766897	 8.766897;
	36	 106	 0.00822	 0.05767	 0.0982	 344.0	 344.0	 344.0	 0.0	 0.0	 1	 -8.766897	 8.766897;
	167	 39	 0.01698	 0.12459	 0.1957	 231.0	 231.0	 231.0	 0.0	 0.0	 1	 -8.766897	 8.766897;
	153	 46	 0.01298	 0.06738	 0.10284	 250.0	 250.0	 250.0	 0.0	 0.0	 1	 -8.766897	 8.766897;
	152	 25	 0.01068	 0.0475	 0.09495	 277.0	 277.0	 277.0	 0.0	 0.0	 1	 -8.766897	 8.766897;
	188	 26	 0.01436	 0.10729	 0.16081	 231.0	 231.0	 231.0	 0.0	 0.0	 1	 -8.766897	 8.766897;
	53	 124	 0.01488	 0.08161	 0.1148	 266.0	 266.0	 266.0	 0.0	 0.0	 1	 -8.766897	 8.766897;
	52	 106	 0.01116	 0.07171	 0.10367	 267.0	 267.0	 267.0	 0.0	 0.0	 1	 -8.766897	 8.766897;
	203	 98	 0.00552	 0.05948	 0.17077	 317.0	 317.0	 317.0	 0.0	 0.0	 1	 -8.766897	 8.766897;
	234	 189	 0.01118	 0.06597	 0.10778	 267.0	 267.0	 267.0	 0.0	 0.0	 1	 -8.766897	 8.766897;
	221	 188	 0.01682	 0.08909	 0.12993	 295.0	 295.0	 295.0	 0.0	 0.0	 1	 -8.766897	 8.766897;
	222	 189	 0.01384	 0.08702	 0.13484	 295.0	 295.0	 295.0	 0.0	 0.0	 1	 -8.766897	 8.766897;
	238	 192	 0.01517	 0.09938	 0.14492	 197.0	 197.0	 197.0	 0.0	 0.0	 1	 -8.766897	 8.766897;
	57	 14	 0.01457	 0.07362	 0.13344	 294.0	 294.0	 294.0	 0.0	 0.0	 1	 -8.766897	 8.766897;
	229	 23	 0.01403	 0.10413	 0.15949	 231.0	 231.0	 231.0	 0.0	 0.0	 1	 -8.766897	 8.766897;
	115	 68	 0.00374	 0.0438	 0.10096	 439.0	 439.0	 439.0	 0.0	 0.0	 1	 -8.766897	 8.766897;
	187	 97	 0.00194	 0.02007	 0.54307	 753.0	 753.0	 753.0	 0.0	 0.0	 1	 -8.766897	 8.766897;
	58	 12	 0.0015	 0.01506	 0.4032	 742.0	 742.0	 742.0	 0.0	 0.0	 1	 -8.766897	 8.766897;
	210	 171	 0.00296	 0.03484	 0.9296	 800.0	 800.0	 800.0	 0.0	 0.0	 1	 -8.766897	 8.766897;
	136	 70	 0.00169	 0.01931	 0.53814	 789.0	 789.0	 789.0	 0.0	 0.0	 1	 -8.766897	 8.766897;
	38	 108	 0.00137	 0.01569	 0.43744	 790.0	 790.0	 790.0	 0.0	 0.0	 1	 -8.766897	 8.766897;
	37	 139	 0.00234	 0.02677	 0.74653	 790.0	 790.0	 790.0	 0.0	 0.0	 1	 -8.766897	 8.766897;
	32	 218	 0.00217	 0.02513	 0.67098	 794.0	 794.0	 794.0	 0.0	 0.0	 1	 -8.766897	 8.766897;
	136	 78	 0.00152	 0.01739	 0.48083	 790.0	 790.0	 790.0	 0.0	 0.0	 1	 -8.766897	 8.766897;
	138	 78	 0.00468	 0.05347	 1.48883	 537.0	 537.0	 537.0	 0.0	 0.0	 1	 -8.766897	 8.766897;
	97	 41	 0.00355	 0.03617	 0.95894	 717.0	 717.0	 717.0	 0.0	 0.0	 1	 -8.766897	 8.766897;
	107	 41	 0.00097	 0.01052	 0.28395	 770.0	 770.0	 770.0	 0.0	 0.0	 1	 -8.766897	 8.766897;
	61	 137	 0.00144	 0.01446	 0.51213	 742.0	 742.0	 742.0	 0.0	 0.0	 1	 -8.766897	 8.766897;
	15	 6	 0.013	 0.09781	 0.14013	 326.0	 326.0	 326.0	 0.0	 0.0	 1	 -8.766897	 8.766897;
	40	 15	 0.00525	 0.03847	 0.06053	 231.0	 231.0	 231.0	 0.0	 0.0	 1	 -8.766897	 8.766897;
	31	 6	 0.00457	 0.03351	 0.05245	 317.0	 317.0	 317.0	 0.0	 0.0	 1	 -8.766897	 8.766897;
	22	 9	 0.01469	 0.10915	 0.16676	 293.0	 293.0	 293.0	 0.0	 0.0	 1	 -8.766897	 8.766897;
	27	 14	 0.01262	 0.09326	 0.14324	 231.0	 231.0	 231.0	 0.0	 0.0	 1	 -8.766897	 8.766897;
	35	 7	 0.00924	 0.05052	 0.07698	 295.0	 295.0	 295.0	 0.0	 0.0	 1	 -8.766897	 8.766897;
	22	 3	 0.01068	 0.07936	 0.12155	 231.0	 231.0	 231.0	 0.0	 0.0	 1	 -8.766897	 8.766897;
	35	 25	 0.00585	 0.04027	 0.07161	 341.0	 341.0	 341.0	 0.0	 0.0	 1	 -8.766897	 8.766897;
	36	 24	 0.00585	 0.04027	 0.07161	 341.0	 341.0	 341.0	 0.0	 0.0	 1	 -8.766897	 8.766897;
	14	 8	 0.00558	 0.04147	 0.0629	 231.0	 231.0	 231.0	 0.0	 0.0	 1	 -8.766897	 8.766897;
	43	 15	 0.00089	 0.0063	 0.0108	 231.0	 231.0	 231.0	 0.0	 0.0	 1	 -8.766897	 8.766897;
	29	 15	 0.00442	 0.02374	 0.04477	 303.0	 303.0	 303.0	 0.0	 0.0	 1	 -8.766897	 8.766897;
	45	 7	 0.00494	 0.0269	 0.04225	 250.0	 250.0	 250.0	 0.0	 0.0	 1	 -8.766897	 8.766897;
	24	 6	 0.00287	 0.01671	 0.02467	 295.0	 295.0	 295.0	 0.0	 0.0	 1	 -8.766897	 8.766897;
	35	 1	 0.0012	 0.0089	 0.01512	 353.0	 353.0	 353.0	 0.0	 0.0	 1	 -8.766897	 8.766897;
...